@<TRIPOS>MOLECULE
*****
 22 23 0 0 0
SMALL
GASTEIGER

@<TRIPOS>ATOM
      1 C         141.4039  141.7687  169.7205 C.ar    1  UNL1        0.1219
      2 C         140.1431  141.4029  170.4460 C.ar    1  UNL1        0.0230
      3 C         139.1373  140.5011  169.7940 C.ar    1  UNL1        0.0383
      4 C         139.3924  139.9649  168.4165 C.ar    1  UNL1        0.1386
      5 C         140.6532  140.3307  167.6911 C.ar    1  UNL1        0.0383
      6 C         141.6590  141.2325  168.3430 C.ar    1  UNL1        0.0230
      7 N         143.4155  143.5724  171.0244 N.3     1  UNL1       -0.2035
      8 S         142.4097  142.6705  170.3725 S.O2    1  UNL1        0.0572
      9 O         141.7010  142.5121  171.6849 O.2     1  UNL1       -0.1532
     10 O         143.1184  142.8289  169.0600 O.2     1  UNL1       -0.1532
     11 H         144.2872  143.0624  171.1674 H       1  UNL1        0.1442
     12 H         143.0552  143.8889  171.9246 H       1  UNL1        0.1442
     13 O         138.3866  139.0631  167.7646 O.3     1  UNL1       -0.4754
     14 C         138.2343  139.0642  166.2724 C.3     1  UNL1        0.2068
     15 C         138.6699  137.8720  165.4731 C.3     1  UNL1        0.0646
     16 C         139.6047  138.0476  164.3131 C.3     1  UNL1        0.0759
     17 N         140.9206  138.7404  164.5086 N.3     1  UNL1       -0.2726
     18 C         141.1013  140.1534  164.0389 C.3     1  UNL1        0.0721
     19 C         142.4173  140.8463  164.2343 C.3     1  UNL1        0.0174
     20 C         143.5526  140.1261  164.8995 C.3     1  UNL1        0.0029
     21 C         143.3719  138.7130  165.3692 C.3     1  UNL1        0.0174
     22 C         142.0559  138.0201  165.1737 C.3     1  UNL1        0.0721
@<TRIPOS>BOND
     1     7     8    1
     2     8     9    2
     3     8    10    2
     4     8     1    1
     5     1     2   ar
     6     2     3   ar
     7     3     4   ar
     8     4    13    1
     9    13    14    1
    10    14    15    1
    11    15    16    1
    12    16    17    1
    13    17    18    1
    14    18    19    1
    15    19    20    1
    16    20    21    1
    17    21    22    1
    18     4     5   ar
    19     5     6   ar
    20     6     1   ar
    21    22    17    1
    22     7    11    1
    23     7    12    1
@<TRIPOS>MOLECULE
*****
 22 23 0 0 0
SMALL
GASTEIGER

@<TRIPOS>ATOM
      1 C         141.4295  141.7445  169.7386 C.ar    1  UNL1        0.1219
      2 C         141.8169  141.0221  168.4824 C.ar    1  UNL1        0.0230
      3 C         140.8416  140.0952  167.8192 C.ar    1  UNL1        0.0383
      4 C         139.4791  139.8908  168.4121 C.ar    1  UNL1        0.1386
      5 C         139.0917  140.6133  169.6683 C.ar    1  UNL1        0.0383
      6 C         140.0670  141.5401  170.3315 C.ar    1  UNL1        0.0230
      7 N         143.3800  143.5982  171.0650 N.3     1  UNL1       -0.2035
      8 S         142.4048  142.6714  170.4018 S.O2    1  UNL1        0.0572
      9 O         141.7197  142.4504  171.7178 O.2     1  UNL1       -0.1532
     10 O         143.0898  142.8923  169.0858 O.2     1  UNL1       -0.1532
     11 H         144.2740  143.1220  171.1850 H       1  UNL1        0.1442
     12 H         143.0180  143.8767  171.9771 H       1  UNL1        0.1442
     13 O         138.5039  138.9640  167.7489 O.3     1  UNL1       -0.4754
     14 C         137.9188  139.3206  166.4145 C.3     1  UNL1        0.2068
     15 C         138.7023  139.0682  165.1605 C.3     1  UNL1        0.0646
     16 C         138.7296  140.1006  164.0726 C.3     1  UNL1        0.0759
     17 N         138.8589  141.5539  164.4210 N.3     1  UNL1       -0.2726
     18 C         140.1595  142.0866  164.9450 C.3     1  UNL1        0.0721
     19 C         140.2888  143.5399  165.2933 C.3     1  UNL1        0.0174
     20 C         139.1176  144.4604  165.1176 C.3     1  UNL1        0.0029
     21 C         137.8169  143.9276  164.5936 C.3     1  UNL1        0.0174
     22 C         137.6876  142.4744  164.2453 C.3     1  UNL1        0.0721
@<TRIPOS>BOND
     1     7     8    1
     2     8     9    2
     3     8    10    2
     4     8     1    1
     5     1     2   ar
     6     2     3   ar
     7     3     4   ar
     8     4    13    1
     9    13    14    1
    10    14    15    1
    11    15    16    1
    12    16    17    1
    13    17    18    1
    14    18    19    1
    15    19    20    1
    16    20    21    1
    17    21    22    1
    18     4     5   ar
    19     5     6   ar
    20     6     1   ar
    21    22    17    1
    22     7    11    1
    23     7    12    1
@<TRIPOS>MOLECULE
*****
 22 23 0 0 0
SMALL
GASTEIGER

@<TRIPOS>ATOM
      1 C         140.8396  142.7776  169.2253 C.ar    1  UNL1        0.1219
      2 C         142.3154  142.6920  169.4794 C.ar    1  UNL1        0.0230
      3 C         143.2539  142.3810  168.3513 C.ar    1  UNL1        0.0383
      4 C         142.7165  142.1557  166.9692 C.ar    1  UNL1        0.1386
      5 C         141.2407  142.2413  166.7151 C.ar    1  UNL1        0.0383
      6 C         140.3023  142.5523  167.8432 C.ar    1  UNL1        0.0230
      7 N         138.9627  143.3995  171.4815 N.3     1  UNL1       -0.2035
      8 S         139.9011  143.0886  170.3534 S.O2    1  UNL1        0.0572
      9 O         140.3164  144.5290  170.3018 O.2     1  UNL1       -0.1532
     10 O         139.4859  141.6481  170.4050 O.2     1  UNL1       -0.1532
     11 H         138.0050  143.4205  171.1311 H       1  UNL1        0.1442
     12 H         139.1990  144.3084  171.8797 H       1  UNL1        0.1442
     13 O         143.6550  141.8447  165.8411 O.3     1  UNL1       -0.4754
     14 C         143.1363  141.7571  164.4364 C.3     1  UNL1        0.2068
     15 C         143.1535  142.9697  163.5535 C.3     1  UNL1        0.0646
     16 C         141.9444  143.3209  162.7381 C.3     1  UNL1        0.0759
     17 N         140.6069  143.4622  163.4024 N.3     1  UNL1       -0.2726
     18 C         139.5864  142.3705  163.2733 C.3     1  UNL1        0.0721
     19 C         138.2489  142.5118  163.9376 C.3     1  UNL1        0.0174
     20 C         137.9321  143.7447  164.7310 C.3     1  UNL1        0.0029
     21 C         138.9527  144.8364  164.8601 C.3     1  UNL1        0.0174
     22 C         140.2901  144.6952  164.1958 C.3     1  UNL1        0.0721
@<TRIPOS>BOND
     1     7     8    1
     2     8     9    2
     3     8    10    2
     4     8     1    1
     5     1     2   ar
     6     2     3   ar
     7     3     4   ar
     8     4    13    1
     9    13    14    1
    10    14    15    1
    11    15    16    1
    12    16    17    1
    13    17    18    1
    14    18    19    1
    15    19    20    1
    16    20    21    1
    17    21    22    1
    18     4     5   ar
    19     5     6   ar
    20     6     1   ar
    21    22    17    1
    22     7    11    1
    23     7    12    1
@<TRIPOS>MOLECULE
*****
 22 23 0 0 0
SMALL
GASTEIGER

@<TRIPOS>ATOM
      1 C         140.7844  142.7453  169.2967 C.ar    1  UNL1        0.1219
      2 C         140.2202  142.4023  167.9499 C.ar    1  UNL1        0.0230
      3 C         141.1414  142.0835  166.8098 C.ar    1  UNL1        0.0383
      4 C         142.6268  142.1076  167.0165 C.ar    1  UNL1        0.1386
      5 C         143.1911  142.4506  168.3633 C.ar    1  UNL1        0.0383
      6 C         142.2699  142.7694  169.5034 C.ar    1  UNL1        0.0230
      7 N         138.9420  143.3829  171.5768 N.3     1  UNL1       -0.2035
      8 S         139.8632  143.0641  170.4367 S.O2    1  UNL1        0.0572
      9 O         140.2141  144.5173  170.3139 O.2     1  UNL1       -0.1532
     10 O         139.5123  141.6109  170.5596 O.2     1  UNL1       -0.1532
     11 H         137.9754  143.3485  171.2527 H       1  UNL1        0.1442
     12 H         139.1491  144.3170  171.9302 H       1  UNL1        0.1442
     13 O         143.5480  141.7888  165.8765 O.3     1  UNL1       -0.4754
     14 C         144.2244  142.8976  165.1262 C.3     1  UNL1        0.2068
     15 C         143.4941  143.6165  164.0308 C.3     1  UNL1        0.0646
     16 C         142.3727  142.9349  163.3041 C.3     1  UNL1        0.0759
     17 N         140.9497  143.2287  163.6764 N.3     1  UNL1       -0.2726
     18 C         140.5949  144.5439  164.3042 C.3     1  UNL1        0.0721
     19 C         139.1718  144.8377  164.6765 C.3     1  UNL1        0.0174
     20 C         138.1036  143.8163  164.4209 C.3     1  UNL1        0.0029
     21 C         138.4583  142.5010  163.7930 C.3     1  UNL1        0.0174
     22 C         139.8814  142.2072  163.4207 C.3     1  UNL1        0.0721
@<TRIPOS>BOND
     1     7     8    1
     2     8     9    2
     3     8    10    2
     4     8     1    1
     5     1     2   ar
     6     2     3   ar
     7     3     4   ar
     8     4    13    1
     9    13    14    1
    10    14    15    1
    11    15    16    1
    12    16    17    1
    13    17    18    1
    14    18    19    1
    15    19    20    1
    16    20    21    1
    17    21    22    1
    18     4     5   ar
    19     5     6   ar
    20     6     1   ar
    21    22    17    1
    22     7    11    1
    23     7    12    1
@<TRIPOS>MOLECULE
*****
 22 23 0 0 0
SMALL
GASTEIGER

@<TRIPOS>ATOM
      1 C         140.1744  141.4144  169.0299 C.ar    1  UNL1        0.1219
      2 C         139.4950  140.1148  168.7148 C.ar    1  UNL1        0.0230
      3 C         139.3203  139.6864  167.2880 C.ar    1  UNL1        0.0383
      4 C         139.8251  140.5576  166.1761 C.ar    1  UNL1        0.1386
      5 C         140.5045  141.8572  166.4912 C.ar    1  UNL1        0.0383
      6 C         140.6792  142.2856  167.9180 C.ar    1  UNL1        0.0230
      7 N         140.5238  142.2713  171.8836 N.3     1  UNL1       -0.2035
      8 S         140.3491  141.8429  170.4567 S.O2    1  UNL1        0.0572
      9 O         141.8338  141.9116  170.2543 O.2     1  UNL1       -0.1532
     10 O         138.8644  141.7742  170.6591 O.2     1  UNL1       -0.1532
     11 H         140.2563  143.2509  171.9796 H       1  UNL1        0.1442
     12 H         141.5002  142.1572  172.1557 H       1  UNL1        0.1442
     13 O         139.6504  140.1291  164.7493 O.3     1  UNL1       -0.4754
     14 C         138.2888  139.7631  164.2374 C.3     1  UNL1        0.2068
     15 C         137.8111  140.3049  162.9228 C.3     1  UNL1        0.0646
     16 C         137.4141  141.7467  162.8056 C.3     1  UNL1        0.0759
     17 N         138.3172  142.8190  163.3389 N.3     1  UNL1       -0.2726
     18 C         139.6737  143.0268  162.7334 C.3     1  UNL1        0.0721
     19 C         140.5769  144.0991  163.2668 C.3     1  UNL1        0.0174
     20 C         140.1235  144.9637  164.4056 C.3     1  UNL1        0.0029
     21 C         138.7669  144.7560  165.0111 C.3     1  UNL1        0.0174
     22 C         137.8637  143.6836  164.4777 C.3     1  UNL1        0.0721
@<TRIPOS>BOND
     1     7     8    1
     2     8     9    2
     3     8    10    2
     4     8     1    1
     5     1     2   ar
     6     2     3   ar
     7     3     4   ar
     8     4    13    1
     9    13    14    1
    10    14    15    1
    11    15    16    1
    12    16    17    1
    13    17    18    1
    14    18    19    1
    15    19    20    1
    16    20    21    1
    17    21    22    1
    18     4     5   ar
    19     5     6   ar
    20     6     1   ar
    21    22    17    1
    22     7    11    1
    23     7    12    1
@<TRIPOS>MOLECULE
*****
 22 23 0 0 0
SMALL
GASTEIGER

@<TRIPOS>ATOM
      1 C         140.8366  141.5082  169.3388 C.ar    1  UNL1        0.1219
      2 C         141.0449  142.3616  168.1230 C.ar    1  UNL1        0.0230
      3 C         140.4438  141.9559  166.8099 C.ar    1  UNL1        0.0383
      4 C         139.6344  140.6969  166.7126 C.ar    1  UNL1        0.1386
      5 C         139.4261  139.8434  167.9284 C.ar    1  UNL1        0.0383
      6 C         140.0272  140.2491  169.2415 C.ar    1  UNL1        0.0230
      7 N         142.0387  142.3195  171.9649 N.3     1  UNL1       -0.2035
      8 S         141.4376  141.9139  170.6518 S.O2    1  UNL1        0.0572
      9 O         142.8073  141.8550  170.0431 O.2     1  UNL1       -0.1532
     10 O         140.0680  141.9727  171.2606 O.2     1  UNL1       -0.1532
     11 H         141.8919  143.3182  172.1120 H       1  UNL1        0.1442
     12 H         143.0390  142.1205  171.9569 H       1  UNL1        0.1442
     13 O         139.0334  140.2912  165.3996 O.3     1  UNL1       -0.4754
     14 C         138.4434  138.9218  165.2359 C.3     1  UNL1        0.2068
     15 C         139.3348  137.7509  164.9454 C.3     1  UNL1        0.0646
     16 C         140.3287  137.8249  163.8243 C.3     1  UNL1        0.0759
     17 N         141.7284  138.2930  164.0926 N.3     1  UNL1       -0.2726
     18 C         142.2223  138.4107  165.5040 C.3     1  UNL1        0.0721
     19 C         143.6219  138.8788  165.7722 C.3     1  UNL1        0.0174
     20 C         144.5276  139.2292  164.6291 C.3     1  UNL1        0.0029
     21 C         144.0337  139.1115  163.2175 C.3     1  UNL1        0.0174
     22 C         142.6341  138.6434  162.9493 C.3     1  UNL1        0.0721
@<TRIPOS>BOND
     1     7     8    1
     2     8     9    2
     3     8    10    2
     4     8     1    1
     5     1     2   ar
     6     2     3   ar
     7     3     4   ar
     8     4    13    1
     9    13    14    1
    10    14    15    1
    11    15    16    1
    12    16    17    1
    13    17    18    1
    14    18    19    1
    15    19    20    1
    16    20    21    1
    17    21    22    1
    18     4     5   ar
    19     5     6   ar
    20     6     1   ar
    21    22    17    1
    22     7    11    1
    23     7    12    1
@<TRIPOS>MOLECULE
*****
 22 23 0 0 0
SMALL
GASTEIGER

@<TRIPOS>ATOM
      1 C         142.6499  140.7581  168.8798 C.ar    1  UNL1        0.1219
      2 C         142.5881  139.4685  168.1163 C.ar    1  UNL1        0.0230
      3 C         142.7723  139.4688  166.6276 C.ar    1  UNL1        0.0383
      4 C         143.0184  140.7586  165.9026 C.ar    1  UNL1        0.1386
      5 C         143.0802  142.0482  166.6661 C.ar    1  UNL1        0.0383
      6 C         142.8959  142.0479  168.1548 C.ar    1  UNL1        0.0230
      7 N         142.2814  140.7577  171.8571 N.3     1  UNL1       -0.2035
      8 S         142.4656  140.7579  170.3685 S.O2    1  UNL1        0.0572
      9 O         141.7196  142.0560  170.2763 O.2     1  UNL1       -0.1532
     10 O         143.2116  139.4599  170.4606 O.2     1  UNL1       -0.1532
     11 H         141.5541  140.0885  172.1096 H       1  UNL1        0.1442
     12 H         142.0072  141.6904  172.1659 H       1  UNL1        0.1442
     13 O         143.2027  140.7588  164.4139 O.3     1  UNL1       -0.4754
     14 C         143.3260  139.4603  163.6733 C.3     1  UNL1        0.2068
     15 C         142.3778  139.1415  162.5555 C.3     1  UNL1        0.0646
     16 C         140.9653  139.6440  162.6039 C.3     1  UNL1        0.0759
     17 N         140.0938  139.3197  163.7810 N.3     1  UNL1       -0.2726
     18 C         139.5880  140.4205  164.6655 C.3     1  UNL1        0.0721
     19 C         138.7166  140.0963  165.8425 C.3     1  UNL1        0.0174
     20 C         138.3509  138.6713  166.1351 C.3     1  UNL1        0.0029
     21 C         138.8567  137.5704  165.2505 C.3     1  UNL1        0.0174
     22 C         139.7281  137.8946  164.0735 C.3     1  UNL1        0.0721
@<TRIPOS>BOND
     1     7     8    1
     2     8     9    2
     3     8    10    2
     4     8     1    1
     5     1     2   ar
     6     2     3   ar
     7     3     4   ar
     8     4    13    1
     9    13    14    1
    10    14    15    1
    11    15    16    1
    12    16    17    1
    13    17    18    1
    14    18    19    1
    15    19    20    1
    16    20    21    1
    17    21    22    1
    18     4     5   ar
    19     5     6   ar
    20     6     1   ar
    21    22    17    1
    22     7    11    1
    23     7    12    1
@<TRIPOS>MOLECULE
*****
 22 23 0 0 0
SMALL
GASTEIGER

@<TRIPOS>ATOM
      1 C         140.7343  140.6378  168.4931 C.ar    1  UNL1        0.1219
      2 C         141.5108  139.7479  167.5684 C.ar    1  UNL1        0.0230
      3 C         141.9557  140.2616  166.2311 C.ar    1  UNL1        0.0383
      4 C         141.6241  141.6651  165.8186 C.ar    1  UNL1        0.1386
      5 C         140.8477  142.5549  166.7434 C.ar    1  UNL1        0.0383
      6 C         140.4028  142.0413  168.0806 C.ar    1  UNL1        0.0230
      7 N         139.8445  139.6105  171.1676 N.3     1  UNL1       -0.2035
      8 S         140.2894  140.1241  169.8304 S.O2    1  UNL1        0.0572
      9 O         141.6507  140.4085  170.3925 O.2     1  UNL1       -0.1532
     10 O         138.9281  139.8398  169.2682 O.2     1  UNL1       -0.1532
     11 H         139.2548  140.3085  171.6209 H       1  UNL1        0.1442
     12 H         140.6614  139.4256  171.7498 H       1  UNL1        0.1442
     13 O         142.0690  142.1787  164.4814 O.3     1  UNL1       -0.4754
     14 C         141.1104  142.9379  163.6128 C.3     1  UNL1        0.2068
     15 C         140.1696  142.1976  162.7089 C.3     1  UNL1        0.0646
     16 C         138.8864  141.6436  163.2537 C.3     1  UNL1        0.0759
     17 N         138.8787  140.3147  163.9493 N.3     1  UNL1       -0.2726
     18 C         138.2420  140.1792  165.3006 C.3     1  UNL1        0.0721
     19 C         138.2343  138.8503  165.9963 C.3     1  UNL1        0.0174
     20 C         138.8634  137.6569  165.3406 C.3     1  UNL1        0.0029
     21 C         139.5002  137.7923  163.9892 C.3     1  UNL1        0.0174
     22 C         139.5078  139.1212  163.2935 C.3     1  UNL1        0.0721
@<TRIPOS>BOND
     1     7     8    1
     2     8     9    2
     3     8    10    2
     4     8     1    1
     5     1     2   ar
     6     2     3   ar
     7     3     4   ar
     8     4    13    1
     9    13    14    1
    10    14    15    1
    11    15    16    1
    12    16    17    1
    13    17    18    1
    14    18    19    1
    15    19    20    1
    16    20    21    1
    17    21    22    1
    18     4     5   ar
    19     5     6   ar
    20     6     1   ar
    21    22    17    1
    22     7    11    1
    23     7    12    1
@<TRIPOS>MOLECULE
*****
 22 23 0 0 0
SMALL
GASTEIGER

@<TRIPOS>ATOM
      1 C         142.6242  140.7400  168.9391 C.ar    1  UNL1        0.1219
      2 C         142.6306  139.4223  168.2225 C.ar    1  UNL1        0.0230
      3 C         142.8255  139.3779  166.7359 C.ar    1  UNL1        0.0383
      4 C         143.0139  140.6512  165.9658 C.ar    1  UNL1        0.1386
      5 C         143.0075  141.9690  166.6824 C.ar    1  UNL1        0.0383
      6 C         142.8126  142.0134  168.1690 C.ar    1  UNL1        0.0230
      7 N         142.2345  140.8288  171.9123 N.3     1  UNL1       -0.2035
      8 S         142.4293  140.7844  170.4257 S.O2    1  UNL1        0.0572
      9 O         143.4152  139.6657  170.5883 O.2     1  UNL1       -0.1532
     10 O         141.4435  141.9032  170.2631 O.2     1  UNL1       -0.1532
     11 H         142.7299  141.6335  172.2963 H       1  UNL1        0.1442
     12 H         142.6013  139.9731  172.3290 H       1  UNL1        0.1442
     13 O         143.2088  140.6068  164.4792 O.3     1  UNL1       -0.4754
     14 C         144.5432  140.2276  163.9087 C.3     1  UNL1        0.2068
     15 C         145.5867  141.2801  163.6779 C.3     1  UNL1        0.0646
     16 C         145.3580  142.3509  162.6525 C.3     1  UNL1        0.0759
     17 N         144.1509  143.2361  162.7490 N.3     1  UNL1       -0.2726
     18 C         143.0575  143.1273  161.7279 C.3     1  UNL1        0.0721
     19 C         141.8504  144.0125  161.8244 C.3     1  UNL1        0.0174
     20 C         141.7367  145.0065  162.9419 C.3     1  UNL1        0.0029
     21 C         142.8301  145.1153  163.9631 C.3     1  UNL1        0.0174
     22 C         144.0372  144.2301  163.8666 C.3     1  UNL1        0.0721
@<TRIPOS>BOND
     1     7     8    1
     2     8     9    2
     3     8    10    2
     4     8     1    1
     5     1     2   ar
     6     2     3   ar
     7     3     4   ar
     8     4    13    1
     9    13    14    1
    10    14    15    1
    11    15    16    1
    12    16    17    1
    13    17    18    1
    14    18    19    1
    15    19    20    1
    16    20    21    1
    17    21    22    1
    18     4     5   ar
    19     5     6   ar
    20     6     1   ar
    21    22    17    1
    22     7    11    1
    23     7    12    1
