@<TRIPOS>MOLECULE
*****
 24 26 0 0 0
SMALL
GASTEIGER

@<TRIPOS>ATOM
      1 C         140.2912  140.0479  166.9779 C.ar    1  UNL1        0.0252
      2 C         139.8538  140.2161  168.4028 C.ar    1  UNL1       -0.0009
      3 C         140.8004  139.8938  169.5209 C.ar    1  UNL1        0.0210
      4 C         142.1843  139.4034  169.2141 C.ar    1  UNL1        0.1397
      5 F         143.1309  139.0811  170.3323 F       1  UNL1       -0.2044
      6 C         142.6217  139.2352  167.7892 C.ar    1  UNL1        0.0587
      7 C         141.6752  139.5574  166.6711 C.ar    1  UNL1        0.1401
      8 F         142.1126  139.3892  165.2462 F       1  UNL1       -0.2044
      9 C         139.0654  138.9054  166.0235 C.3     1  UNL1        0.0291
     10 C         139.3447  140.3701  165.8598 C.3     1  UNL1        0.1080
     11 C         139.9526  141.7228  166.0844 C.3     1  UNL1        0.0388
     12 C         139.5171  142.8891  165.2477 C.3     1  UNL1        0.0671
     13 S         138.4735  142.7027  164.1864 S.3     1  UNL1       -0.0807
     14 C         137.8656  141.3500  163.9618 C.2     1  UNL1        0.1482
     15 N         136.8220  141.1635  162.9005 N.pl3   1  UNL1       -0.3380
     16 N         138.3011  140.1836  164.7985 N.2     1  UNL1       -0.2509
     17 H         136.5361  141.9290  162.3514 H       1  UNL1        0.1442
     18 H         136.4230  140.2756  162.7531 H       1  UNL1        0.1442
     19 C         140.3630  140.0620  170.9459 C.3     1  UNL1        0.0978
     20 N         140.4338  141.4110  171.5979 N.3     1  UNL1       -0.2948
     21 H         141.1093  141.3354  172.3583 H       1  UNL1        0.1235
     22 C         140.8226  142.6144  170.7913 C.3     1  UNL1        0.0543
     23 C         141.8802  143.4547  170.1390 C.3     1  UNL1        0.0171
     24 C         140.4386  143.8584  170.0464 C.3     1  UNL1        0.0171
@<TRIPOS>BOND
     1    10     9    1
     2    10     1    1
     3     1     2   ar
     4     2     3   ar
     5     3    19    1
     6    19    20    1
     7    20    22    1
     8    22    23    1
     9    23    24    1
    10     3     4   ar
    11     4     5    1
    12     4     6   ar
    13     6     7   ar
    14     7     8    1
    15    10    11    1
    16    11    12    1
    17    12    13    1
    18    13    14    1
    19    14    15    1
    20    14    16    2
    21    16    10    1
    22     7     1   ar
    23    24    22    1
    24    20    21    1
    25    15    17    1
    26    15    18    1
@<TRIPOS>MOLECULE
*****
 24 26 0 0 0
SMALL
GASTEIGER

@<TRIPOS>ATOM
      1 C         138.7369  139.4214  165.4546 C.ar    1  UNL1        0.0252
      2 C         138.1611  140.5798  164.6953 C.ar    1  UNL1       -0.0009
      3 C         137.9004  140.4564  163.2233 C.ar    1  UNL1        0.0210
      4 C         138.2156  139.1747  162.5106 C.ar    1  UNL1        0.1397
      5 F         137.9549  139.0514  161.0386 F       1  UNL1       -0.2044
      6 C         138.7915  138.0164  163.2700 C.ar    1  UNL1        0.0587
      7 C         139.0521  138.1397  164.7419 C.ar    1  UNL1        0.1401
      8 F         139.6280  136.9814  165.5013 F       1  UNL1       -0.2044
      9 C         137.6915  138.8076  166.9543 C.3     1  UNL1        0.0291
     10 C         138.9976  139.5448  166.9267 C.3     1  UNL1        0.1080
     11 C         140.2131  140.2391  166.3879 C.3     1  UNL1        0.0388
     12 C         141.2357  140.8008  167.3306 C.3     1  UNL1        0.0671
     13 S         141.0427  140.6680  168.8123 S.3     1  UNL1       -0.0807
     14 C         139.8272  139.9737  169.3511 C.2     1  UNL1        0.1482
     15 N         139.6343  139.8410  170.8327 N.pl3   1  UNL1       -0.3380
     16 N         138.8046  139.4120  168.4083 N.2     1  UNL1       -0.2509
     17 H         140.3054  140.2096  171.4515 H       1  UNL1        0.1442
     18 H         138.8365  139.3852  171.1864 H       1  UNL1        0.1442
     19 C         137.3246  141.6148  162.4639 C.3     1  UNL1        0.0978
     20 N         138.1198  142.8766  162.3041 N.3     1  UNL1       -0.2948
     21 H         137.6495  143.4326  161.5899 H       1  UNL1        0.1235
     22 C         138.3382  143.7796  163.4817 C.3     1  UNL1        0.0543
     23 C         139.1789  144.7881  164.2071 C.3     1  UNL1        0.0171
     24 C         137.8757  144.3354  164.7959 C.3     1  UNL1        0.0171
@<TRIPOS>BOND
     1    10     9    1
     2    10     1    1
     3     1     2   ar
     4     2     3   ar
     5     3    19    1
     6    19    20    1
     7    20    22    1
     8    22    23    1
     9    23    24    1
    10     3     4   ar
    11     4     5    1
    12     4     6   ar
    13     6     7   ar
    14     7     8    1
    15    10    11    1
    16    11    12    1
    17    12    13    1
    18    13    14    1
    19    14    15    1
    20    14    16    2
    21    16    10    1
    22     7     1   ar
    23    24    22    1
    24    20    21    1
    25    15    17    1
    26    15    18    1
@<TRIPOS>MOLECULE
*****
 24 26 0 0 0
SMALL
GASTEIGER

@<TRIPOS>ATOM
      1 C         142.1343  141.8612  166.2830 C.ar    1  UNL1        0.0252
      2 C         142.5744  142.1255  167.6924 C.ar    1  UNL1       -0.0009
      3 C         142.8420  140.9792  168.6220 C.ar    1  UNL1        0.0210
      4 C         142.6695  139.5685  168.1422 C.ar    1  UNL1        0.1397
      5 F         142.9371  138.4221  169.0719 F       1  UNL1       -0.2044
      6 C         142.2295  139.3041  166.7328 C.ar    1  UNL1        0.0587
      7 C         141.9619  140.4505  165.8033 C.ar    1  UNL1        0.1401
      8 F         141.5218  140.1862  164.3938 F       1  UNL1       -0.2044
      9 C         140.4808  142.7649  165.8734 C.3     1  UNL1        0.0291
     10 C         141.8667  143.0076  165.3534 C.3     1  UNL1        0.1080
     11 C         143.3455  142.8521  165.1562 C.3     1  UNL1        0.0388
     12 C         144.0754  143.7587  164.2100 C.3     1  UNL1        0.0671
     13 S         143.3265  144.8208  163.4609 S.3     1  UNL1       -0.0807
     14 C         141.8477  144.9763  163.6581 C.2     1  UNL1        0.1482
     15 N         141.0987  146.0384  162.9090 N.pl3   1  UNL1       -0.3380
     16 N         141.1178  144.0697  164.6043 N.2     1  UNL1       -0.2509
     17 H         141.5777  146.6334  162.2880 H       1  UNL1        0.1442
     18 H         140.1281  146.1404  163.0385 H       1  UNL1        0.1442
     19 C         143.2821  141.2435  170.0315 C.3     1  UNL1        0.0978
     20 N         142.2636  141.5391  171.0923 N.3     1  UNL1       -0.2948
     21 H         142.6180  142.3313  171.6281 H       1  UNL1        0.1235
     22 C         140.8535  141.8738  170.7056 C.3     1  UNL1        0.0543
     23 C         139.5330  141.4619  170.1254 C.3     1  UNL1        0.0171
     24 C         139.7316  142.8653  170.6161 C.3     1  UNL1        0.0171
@<TRIPOS>BOND
     1    10     9    1
     2    10     1    1
     3     1     2   ar
     4     2     3   ar
     5     3    19    1
     6    19    20    1
     7    20    22    1
     8    22    23    1
     9    23    24    1
    10     3     4   ar
    11     4     5    1
    12     4     6   ar
    13     6     7   ar
    14     7     8    1
    15    10    11    1
    16    11    12    1
    17    12    13    1
    18    13    14    1
    19    14    15    1
    20    14    16    2
    21    16    10    1
    22     7     1   ar
    23    24    22    1
    24    20    21    1
    25    15    17    1
    26    15    18    1
@<TRIPOS>MOLECULE
*****
 24 26 0 0 0
SMALL
GASTEIGER

@<TRIPOS>ATOM
      1 C         140.6655  142.4507  166.5645 C.ar    1  UNL1        0.0252
      2 C         139.5621  143.2405  165.9252 C.ar    1  UNL1       -0.0009
      3 C         139.8288  144.0259  164.6755 C.ar    1  UNL1        0.0210
      4 C         141.1989  144.0216  164.0650 C.ar    1  UNL1        0.1397
      5 F         141.4657  144.8071  162.8152 F       1  UNL1       -0.2044
      6 C         142.3023  143.2318  164.7042 C.ar    1  UNL1        0.0587
      7 C         142.0356  142.4464  165.9540 C.ar    1  UNL1        0.1401
      8 F         143.1390  141.6566  166.5933 F       1  UNL1       -0.2044
      9 C         140.0489  140.6364  166.7803 C.3     1  UNL1        0.0291
     10 C         140.3987  141.6652  167.8143 C.3     1  UNL1        0.1080
     11 C         140.8412  142.9669  168.4142 C.3     1  UNL1        0.0388
     12 C         140.8955  143.1257  169.9047 C.3     1  UNL1        0.0671
     13 S         140.5073  141.9829  170.7954 S.3     1  UNL1       -0.0807
     14 C         140.0648  140.6813  170.1955 C.2     1  UNL1        0.1482
     15 N         139.6766  139.5384  171.0862 N.pl3   1  UNL1       -0.3380
     16 N         140.0105  140.5224  168.7050 N.2     1  UNL1       -0.2509
     17 H         139.7122  139.6427  172.0645 H       1  UNL1        0.1442
     18 H         139.3862  138.6841  170.6925 H       1  UNL1        0.1442
     19 C         138.7254  144.8158  164.0361 C.3     1  UNL1        0.0978
     20 N         138.0407  144.2905  162.8092 N.3     1  UNL1       -0.2948
     21 H         138.5847  144.6115  162.0083 H       1  UNL1        0.1235
     22 C         137.8432  142.8139  162.6347 C.3     1  UNL1        0.0543
     23 C         138.0450  141.5620  161.8334 C.3     1  UNL1        0.0171
     24 C         137.2992  141.5081  163.1337 C.3     1  UNL1        0.0171
@<TRIPOS>BOND
     1    10     9    1
     2    10     1    1
     3     1     2   ar
     4     2     3   ar
     5     3    19    1
     6    19    20    1
     7    20    22    1
     8    22    23    1
     9    23    24    1
    10     3     4   ar
    11     4     5    1
    12     4     6   ar
    13     6     7   ar
    14     7     8    1
    15    10    11    1
    16    11    12    1
    17    12    13    1
    18    13    14    1
    19    14    15    1
    20    14    16    2
    21    16    10    1
    22     7     1   ar
    23    24    22    1
    24    20    21    1
    25    15    17    1
    26    15    18    1
@<TRIPOS>MOLECULE
*****
 24 26 0 0 0
SMALL
GASTEIGER

@<TRIPOS>ATOM
      1 C         140.2546  141.4374  166.9242 C.ar    1  UNL1        0.0252
      2 C         140.2390  142.8782  166.5074 C.ar    1  UNL1       -0.0009
      3 C         139.3571  143.3228  165.3785 C.ar    1  UNL1        0.0210
      4 C         138.4907  142.3266  164.6665 C.ar    1  UNL1        0.1397
      5 F         137.6087  142.7713  163.5376 F       1  UNL1       -0.2044
      6 C         138.5063  140.8858  165.0833 C.ar    1  UNL1        0.0587
      7 C         139.3882  140.4412  166.2122 C.ar    1  UNL1        0.1401
      8 F         139.4039  139.0003  166.6291 F       1  UNL1       -0.2044
      9 C         142.0359  140.6995  166.8889 C.3     1  UNL1        0.0291
     10 C         141.1366  140.9927  168.0531 C.3     1  UNL1        0.1080
     11 C         139.9311  141.4404  168.8253 C.3     1  UNL1        0.0388
     12 C         139.9199  141.3416  170.3220 C.3     1  UNL1        0.0671
     13 S         141.1142  140.7951  171.0465 S.3     1  UNL1       -0.0807
     14 C         142.3197  140.3474  170.2744 C.2     1  UNL1        0.1482
     15 N         143.5140  139.8008  170.9989 N.pl3   1  UNL1       -0.3380
     16 N         142.3310  140.4462  168.7777 N.2     1  UNL1       -0.2509
     17 H         143.5067  139.7360  171.9813 H       1  UNL1        0.1442
     18 H         144.3053  139.5070  170.4921 H       1  UNL1        0.1442
     19 C         139.3414  144.7637  164.9616 C.3     1  UNL1        0.0978
     20 N         140.2483  145.2369  163.8645 N.3     1  UNL1       -0.2948
     21 H         140.2318  146.2565  163.8880 H       1  UNL1        0.1235
     22 C         141.6912  144.8273  163.8551 C.3     1  UNL1        0.0543
     23 C         143.1451  145.1931  163.8074 C.3     1  UNL1        0.0171
     24 C         142.7366  143.7520  163.8866 C.3     1  UNL1        0.0171
@<TRIPOS>BOND
     1    10     9    1
     2    10     1    1
     3     1     2   ar
     4     2     3   ar
     5     3    19    1
     6    19    20    1
     7    20    22    1
     8    22    23    1
     9    23    24    1
    10     3     4   ar
    11     4     5    1
    12     4     6   ar
    13     6     7   ar
    14     7     8    1
    15    10    11    1
    16    11    12    1
    17    12    13    1
    18    13    14    1
    19    14    15    1
    20    14    16    2
    21    16    10    1
    22     7     1   ar
    23    24    22    1
    24    20    21    1
    25    15    17    1
    26    15    18    1
@<TRIPOS>MOLECULE
*****
 24 26 0 0 0
SMALL
GASTEIGER

@<TRIPOS>ATOM
      1 C         142.0100  139.5155  166.1031 C.ar    1  UNL1        0.0252
      2 C         142.6687  139.1523  167.4009 C.ar    1  UNL1       -0.0009
      3 C         141.9636  139.4136  168.6987 C.ar    1  UNL1        0.0210
      4 C         140.5997  140.0380  168.6988 C.ar    1  UNL1        0.1397
      5 F         139.8946  140.2992  169.9968 F       1  UNL1       -0.2044
      6 C         139.9410  140.4011  167.4011 C.ar    1  UNL1        0.0587
      7 C         140.6461  140.1399  166.1033 C.ar    1  UNL1        0.1401
      8 F         139.9874  140.5030  164.8054 F       1  UNL1       -0.2044
      9 C         141.9240  137.9861  164.9317 C.3     1  UNL1        0.0291
     10 C         142.7151  139.2543  164.8052 C.3     1  UNL1        0.1080
     11 C         143.2613  140.6131  165.1294 C.3     1  UNL1        0.0388
     12 C         144.2378  141.2703  164.1997 C.3     1  UNL1        0.0671
     13 S         144.6682  140.5686  162.9457 S.3     1  UNL1       -0.0807
     14 C         144.1220  139.2098  162.6214 C.2     1  UNL1        0.1482
     15 N         144.5524  138.5081  161.3674 N.pl3   1  UNL1       -0.3380
     16 N         143.1455  138.5526  163.5512 N.2     1  UNL1       -0.2509
     17 H         145.1933  138.9395  160.7572 H       1  UNL1        0.1442
     18 H         144.1939  137.6162  161.1546 H       1  UNL1        0.1442
     19 C         142.6223  139.0504  169.9965 C.3     1  UNL1        0.0978
     20 N         143.3712  140.0915  170.7746 N.3     1  UNL1       -0.2948
     21 H         144.3430  139.7847  170.8175 H       1  UNL1        0.1235
     22 C         143.3869  141.5147  170.3010 C.3     1  UNL1        0.0543
     23 C         144.0223  142.6086  169.4950 C.3     1  UNL1        0.0171
     24 C         142.7790  142.8858  170.2869 C.3     1  UNL1        0.0171
@<TRIPOS>BOND
     1    10     9    1
     2    10     1    1
     3     1     2   ar
     4     2     3   ar
     5     3    19    1
     6    19    20    1
     7    20    22    1
     8    22    23    1
     9    23    24    1
    10     3     4   ar
    11     4     5    1
    12     4     6   ar
    13     6     7   ar
    14     7     8    1
    15    10    11    1
    16    11    12    1
    17    12    13    1
    18    13    14    1
    19    14    15    1
    20    14    16    2
    21    16    10    1
    22     7     1   ar
    23    24    22    1
    24    20    21    1
    25    15    17    1
    26    15    18    1
@<TRIPOS>MOLECULE
*****
 24 26 0 0 0
SMALL
GASTEIGER

@<TRIPOS>ATOM
      1 C         139.7312  140.4868  166.1177 C.ar    1  UNL1        0.0252
      2 C         139.2693  140.0069  167.4617 C.ar    1  UNL1       -0.0009
      3 C         139.5802  140.8076  168.6914 C.ar    1  UNL1        0.0210
      4 C         140.3528  142.0882  168.5771 C.ar    1  UNL1        0.1397
      5 F         140.6637  142.8889  169.8069 F       1  UNL1       -0.2044
      6 C         140.8147  142.5681  167.2332 C.ar    1  UNL1        0.0587
      7 C         140.5038  141.7674  166.0034 C.ar    1  UNL1        0.1401
      8 F         140.9657  142.2473  164.6594 F       1  UNL1       -0.2044
      9 C         138.2246  140.5913  164.9185 C.3     1  UNL1        0.0291
     10 C         139.4203  139.6862  164.8879 C.3     1  UNL1        0.1080
     11 C         140.7240  139.0591  165.2843 C.3     1  UNL1        0.0388
     12 C         141.3016  137.9457  164.4617 C.3     1  UNL1        0.0671
     13 S         140.5754  137.4594  163.2425 S.3     1  UNL1       -0.0807
     14 C         139.2718  138.0865  162.8461 C.2     1  UNL1        0.1482
     15 N         138.5456  137.6002  161.6269 N.pl3   1  UNL1       -0.3380
     16 N         138.6942  139.1999  163.6687 N.2     1  UNL1       -0.2509
     17 H         138.9247  136.8694  161.0870 H       1  UNL1        0.1442
     18 H         137.6900  138.0118  161.3667 H       1  UNL1        0.1442
     19 C         139.1183  140.3277  170.0355 C.3     1  UNL1        0.0978
     20 N         140.0867  139.6614  170.9673 N.3     1  UNL1       -0.2948
     21 H         139.7331  138.7195  171.1353 H       1  UNL1        0.1235
     22 C         141.5276  139.5195  170.5757 C.3     1  UNL1        0.0543
     23 C         142.9254  140.0631  170.5463 C.3     1  UNL1        0.0171
     24 C         142.6258  138.7302  169.9269 C.3     1  UNL1        0.0171
@<TRIPOS>BOND
     1    10     9    1
     2    10     1    1
     3     1     2   ar
     4     2     3   ar
     5     3    19    1
     6    19    20    1
     7    20    22    1
     8    22    23    1
     9    23    24    1
    10     3     4   ar
    11     4     5    1
    12     4     6   ar
    13     6     7   ar
    14     7     8    1
    15    10    11    1
    16    11    12    1
    17    12    13    1
    18    13    14    1
    19    14    15    1
    20    14    16    2
    21    16    10    1
    22     7     1   ar
    23    24    22    1
    24    20    21    1
    25    15    17    1
    26    15    18    1
@<TRIPOS>MOLECULE
*****
 24 26 0 0 0
SMALL
GASTEIGER

@<TRIPOS>ATOM
      1 C         140.3309  142.3742  166.3686 C.ar    1  UNL1        0.0252
      2 C         140.3737  142.9904  167.7355 C.ar    1  UNL1       -0.0009
      3 C         140.0294  142.1664  168.9406 C.ar    1  UNL1        0.0210
      4 C         139.6422  140.7263  168.7789 C.ar    1  UNL1        0.1397
      5 F         139.2979  139.9023  169.9842 F       1  UNL1       -0.2044
      6 C         139.5994  140.1101  167.4120 C.ar    1  UNL1        0.0587
      7 C         139.9437  140.9341  166.2069 C.ar    1  UNL1        0.1401
      8 F         139.9009  140.3179  164.8399 F       1  UNL1       -0.2044
      9 C         142.0330  142.6626  165.5093 C.3     1  UNL1        0.0291
     10 C         140.6752  143.1981  165.1633 C.3     1  UNL1        0.1080
     11 C         139.1980  143.4475  165.2359 C.3     1  UNL1        0.0388
     12 C         138.5365  144.3349  164.2234 C.3     1  UNL1        0.0671
     13 S         139.3524  144.9728  163.1383 S.3     1  UNL1       -0.0807
     14 C         140.8297  144.7234  163.0657 C.2     1  UNL1        0.1482
     15 N         141.6456  145.3613  161.9806 N.pl3   1  UNL1       -0.3380
     16 N         141.4912  143.8361  164.0782 N.2     1  UNL1       -0.2509
     17 H         141.2115  145.9437  161.3161 H       1  UNL1        0.1442
     18 H         142.6153  145.1976  161.9330 H       1  UNL1        0.1442
     19 C         140.0722  142.7826  170.3076 C.3     1  UNL1        0.0978
     20 N         141.3496  142.7753  171.0939 N.3     1  UNL1       -0.2948
     21 H         141.1738  142.2276  171.9362 H       1  UNL1        0.1235
     22 C         142.6057  142.2330  170.4790 C.3     1  UNL1        0.0543
     23 C         143.9753  142.4574  169.9101 C.3     1  UNL1        0.0171
     24 C         143.4116  141.0693  169.9829 C.3     1  UNL1        0.0171
@<TRIPOS>BOND
     1    10     9    1
     2    10     1    1
     3     1     2   ar
     4     2     3   ar
     5     3    19    1
     6    19    20    1
     7    20    22    1
     8    22    23    1
     9    23    24    1
    10     3     4   ar
    11     4     5    1
    12     4     6   ar
    13     6     7   ar
    14     7     8    1
    15    10    11    1
    16    11    12    1
    17    12    13    1
    18    13    14    1
    19    14    15    1
    20    14    16    2
    21    16    10    1
    22     7     1   ar
    23    24    22    1
    24    20    21    1
    25    15    17    1
    26    15    18    1
@<TRIPOS>MOLECULE
*****
 24 26 0 0 0
SMALL
GASTEIGER

@<TRIPOS>ATOM
      1 C         140.4213  142.0327  166.4869 C.ar    1  UNL1        0.0252
      2 C         139.7051  143.2245  165.9243 C.ar    1  UNL1       -0.0009
      3 C         138.5964  143.0338  164.9322 C.ar    1  UNL1        0.0210
      4 C         138.2038  141.6512  164.5027 C.ar    1  UNL1        0.1397
      5 F         137.0951  141.4605  163.5105 F       1  UNL1       -0.2044
      6 C         138.9200  140.4594  165.0653 C.ar    1  UNL1        0.0587
      7 C         140.0288  140.6501  166.0574 C.ar    1  UNL1        0.1401
      8 F         140.7450  139.4583  166.6201 F       1  UNL1       -0.2044
      9 C         142.3202  142.2142  166.2040 C.3     1  UNL1        0.0291
     10 C         141.5301  142.2234  167.4791 C.3     1  UNL1        0.1080
     11 C         140.3550  142.1663  168.4095 C.3     1  UNL1        0.0388
     12 C         140.5630  142.2967  169.8893 C.3     1  UNL1        0.0671
     13 S         141.9462  142.4842  170.4386 S.3     1  UNL1       -0.0807
     14 C         143.1213  142.5413  169.5081 C.2     1  UNL1        0.1482
     15 N         144.5045  142.7288  170.0574 N.pl3   1  UNL1       -0.3380
     16 N         142.9133  142.4109  168.0283 N.2     1  UNL1       -0.2509
     17 H         144.6410  142.8144  171.0286 H       1  UNL1        0.1442
     18 H         145.2757  142.7663  169.4467 H       1  UNL1        0.1442
     19 C         137.8801  144.2256  164.3695 C.3     1  UNL1        0.0978
     20 N         137.9067  144.4884  162.8930 N.3     1  UNL1       -0.2948
     21 H         137.1957  145.1958  162.7070 H       1  UNL1        0.1235
     22 C         139.1703  144.9618  162.2380 C.3     1  UNL1        0.0543
     23 C         140.0961  146.0786  161.8564 C.3     1  UNL1        0.0171
     24 C         140.4333  144.6649  161.4853 C.3     1  UNL1        0.0171
@<TRIPOS>BOND
     1    10     9    1
     2    10     1    1
     3     1     2   ar
     4     2     3   ar
     5     3    19    1
     6    19    20    1
     7    20    22    1
     8    22    23    1
     9    23    24    1
    10     3     4   ar
    11     4     5    1
    12     4     6   ar
    13     6     7   ar
    14     7     8    1
    15    10    11    1
    16    11    12    1
    17    12    13    1
    18    13    14    1
    19    14    15    1
    20    14    16    2
    21    16    10    1
    22     7     1   ar
    23    24    22    1
    24    20    21    1
    25    15    17    1
    26    15    18    1
