@<TRIPOS>MOLECULE
*****
 37 43 0 0 0
SMALL
GASTEIGER

@<TRIPOS>ATOM
      1 N         142.7564  143.6186  161.5246 N.3     1  UNL1       -0.2702
      2 C         141.6111  144.5086  161.1424 C.3     1  UNL1        0.0737
      3 C         141.8912  144.2462  159.6923 C.3     1  UNL1        0.0328
      4 C         140.7124  145.1739  159.6984 C.3     1  UNL1        0.0242
      5 C         140.1006  145.6177  158.4027 C.3     1  UNL1        0.0935
      6 N         140.6675  145.1340  157.1010 N.am    1  UNL1       -0.2792
      7 C         140.0558  145.5778  155.8054 C.2     1  UNL1        0.2317
      8 O         140.6227  145.0940  154.5036 O.2     1  UNL1       -0.2744
      9 C         141.8463  144.2064  157.0949 C.3     1  UNL1        0.0935
     10 C         142.4582  143.7625  158.3906 C.3     1  UNL1        0.0242
     11 C         143.0365  143.3562  160.0745 C.3     1  UNL1        0.0737
     12 C         141.7337  142.3182  166.9004 C.ar    1  UNL1        0.0174
     13 C         140.7340  142.7495  165.8687 C.ar    1  UNL1        0.0012
     14 C         141.1841  143.0594  164.4718 C.ar    1  UNL1       -0.0032
     15 C         142.6339  142.9380  164.1067 C.ar    1  UNL1       -0.0117
     16 C         143.6336  142.5066  165.1384 C.ar    1  UNL1       -0.0248
     17 C         143.1835  142.1967  166.5353 C.ar    1  UNL1       -0.0030
     18 C         144.9857  142.4768  164.4897 C.3     1  UNL1        0.0278
     19 C         144.8217  142.8897  163.0570 C.3     1  UNL1        0.0251
     20 C         143.3682  143.1748  162.8202 C.3     1  UNL1        0.0801
     21 C         138.3160  140.1306  170.1461 C.3     1  UNL1        0.0522
     22 C         139.5747  140.9145  169.9202 C.ar    1  UNL1        0.0626
     23 C         140.0248  141.2244  168.5233 C.ar    1  UNL1        0.0339
     24 C         141.2836  142.0083  168.2974 C.ar    1  UNL1        0.0842
     25 N         142.0923  142.4823  169.4684 N.ar    1  UNL1       -0.2240
     26 C         141.6422  142.1724  170.8653 C.ar    1  UNL1        0.1985
     27 N         140.3834  141.3885  171.0913 N.ar    1  UNL1       -0.2283
     28 C         138.8770  146.5054  155.8115 C.3     1  UNL1        0.1325
     29 C         139.0461  147.9359  155.3928 C.ar    1  UNL1        0.0878
     30 C         139.7950  148.4187  154.1862 C.ar    1  UNL1        0.0971
     31 N         139.7078  149.9158  154.1550 N.ar    1  UNL1       -0.2824
     32 C         140.1167  151.1396  153.3899 C.ar    1  UNL1        0.0842
     33 C         139.5666  152.3382  154.1044 C.ar    1  UNL1        0.0280
     34 C         139.7356  153.7687  153.6857 C.3     1  UNL1        0.0398
     35 S         138.8176  151.8554  155.3110 S.2     1  UNL1       -0.0529
     36 C         138.9049  150.3582  155.3423 C.ar    1  UNL1        0.1789
     37 N         138.4959  149.1346  156.1073 N.ar    1  UNL1       -0.2244
@<TRIPOS>BOND
     1    21    22    1
     2    22    23   ar
     3    23    24   ar
     4    24    12    1
     5    12    13   ar
     6    13    14   ar
     7    14    15   ar
     8    15    16   ar
     9    16    17   ar
    10    16    18    1
    11    18    19    1
    12    19    20    1
    13    20     1    1
    14     1     2    1
    15     2     3    1
    16     3     4    1
    17     4     5    1
    18     5     6    1
    19     6     7   am
    20     7     8    2
    21     7    28    1
    22    28    29    1
    23    29    30   ar
    24    30    31   ar
    25    31    32   ar
    26    32    33   ar
    27    33    34    1
    28    33    35   ar
    29    35    36   ar
    30    36    37   ar
    31     6     9    1
    32     9    10    1
    33     3    11    1
    34    24    25   ar
    35    25    26   ar
    36    26    27   ar
    37    27    22   ar
    38    17    12   ar
    39    11     1    1
    40    20    15    1
    41    10     3    1
    42    37    29   ar
    43    36    31   ar
@<TRIPOS>MOLECULE
*****
 37 43 0 0 0
SMALL
GASTEIGER

@<TRIPOS>ATOM
      1 N         142.7304  141.0255  160.9614 N.3     1  UNL1       -0.2702
      2 C         143.3302  140.1723  159.8833 C.3     1  UNL1        0.0737
      3 C         141.9565  139.7505  159.4530 C.3     1  UNL1        0.0328
      4 C         142.8913  139.0355  158.5230 C.3     1  UNL1        0.0242
      5 C         142.3441  138.1339  157.4564 C.3     1  UNL1        0.0935
      6 N         140.8621  137.9473  157.3197 N.am    1  UNL1       -0.2792
      7 C         140.3148  137.0458  156.2531 C.2     1  UNL1        0.2317
      8 O         138.8327  136.8592  156.1165 O.2     1  UNL1       -0.2744
      9 C         139.9272  138.6623  158.2497 C.3     1  UNL1        0.0935
     10 C         140.4745  139.5639  159.3164 C.3     1  UNL1        0.0242
     11 C         141.3567  140.6037  160.5311 C.3     1  UNL1        0.0737
     12 C         142.6569  142.2466  166.4514 C.ar    1  UNL1        0.0174
     13 C         141.8839  141.1661  165.7552 C.ar    1  UNL1        0.0012
     14 C         142.0243  140.9792  164.2735 C.ar    1  UNL1       -0.0032
     15 C         142.9378  141.8729  163.4881 C.ar    1  UNL1       -0.0117
     16 C         143.7108  142.9535  164.1843 C.ar    1  UNL1       -0.0248
     17 C         143.5704  143.1403  165.6660 C.ar    1  UNL1       -0.0030
     18 C         144.5284  143.6755  163.1546 C.3     1  UNL1        0.0278
     19 C         144.2607  143.0411  161.8220 C.3     1  UNL1        0.0251
     20 C         143.2776  141.9271  162.0280 C.3     1  UNL1        0.0801
     21 C         139.6494  142.8189  170.6499 C.3     1  UNL1        0.0522
     22 C         141.0128  142.7196  170.0324 C.ar    1  UNL1        0.0626
     23 C         141.1532  142.5327  168.5507 C.ar    1  UNL1        0.0339
     24 C         142.5165  142.4335  167.9331 C.ar    1  UNL1        0.0842
     25 N         143.7395  142.5212  168.7972 N.ar    1  UNL1       -0.2240
     26 C         143.5991  142.7080  170.2789 C.ar    1  UNL1        0.1985
     27 N         142.2357  142.8073  170.8965 N.ar    1  UNL1       -0.2283
     28 C         141.2497  136.3308  155.3232 C.3     1  UNL1        0.1325
     29 C         141.8502  135.0169  155.7273 C.ar    1  UNL1        0.0878
     30 C         141.3286  133.6591  155.3608 C.ar    1  UNL1        0.0971
     31 N         142.2338  132.6333  155.9758 N.ar    1  UNL1       -0.2824
     32 C         142.4708  131.1602  156.1294 C.ar    1  UNL1        0.0842
     33 C         143.6984  130.9735  156.9708 C.ar    1  UNL1        0.0280
     34 C         144.2990  129.6597  157.3749 C.3     1  UNL1        0.0398
     35 S         144.2201  132.3312  157.3373 S.2     1  UNL1       -0.0529
     36 C         143.3149  133.3571  156.7223 C.ar    1  UNL1        0.1789
     37 N         143.0778  134.8302  156.5687 N.ar    1  UNL1       -0.2244
@<TRIPOS>BOND
     1    21    22    1
     2    22    23   ar
     3    23    24   ar
     4    24    12    1
     5    12    13   ar
     6    13    14   ar
     7    14    15   ar
     8    15    16   ar
     9    16    17   ar
    10    16    18    1
    11    18    19    1
    12    19    20    1
    13    20     1    1
    14     1     2    1
    15     2     3    1
    16     3     4    1
    17     4     5    1
    18     5     6    1
    19     6     7   am
    20     7     8    2
    21     7    28    1
    22    28    29    1
    23    29    30   ar
    24    30    31   ar
    25    31    32   ar
    26    32    33   ar
    27    33    34    1
    28    33    35   ar
    29    35    36   ar
    30    36    37   ar
    31     6     9    1
    32     9    10    1
    33     3    11    1
    34    24    25   ar
    35    25    26   ar
    36    26    27   ar
    37    27    22   ar
    38    17    12   ar
    39    11     1    1
    40    20    15    1
    41    10     3    1
    42    37    29   ar
    43    36    31   ar
@<TRIPOS>MOLECULE
*****
 37 43 0 0 0
SMALL
GASTEIGER

@<TRIPOS>ATOM
      1 N         139.5482  141.3549  160.7762 N.3     1  UNL1       -0.2702
      2 C         139.2603  139.9839  160.2400 C.3     1  UNL1        0.0737
      3 C         140.2014  140.2327  159.0988 C.3     1  UNL1        0.0328
      4 C         139.6798  138.8440  158.8762 C.3     1  UNL1        0.0242
      5 C         140.1417  138.0504  157.6901 C.3     1  UNL1        0.0935
      6 N         141.1252  138.6455  156.7265 N.am    1  UNL1       -0.2792
      7 C         141.5872  137.8520  155.5403 C.2     1  UNL1        0.2317
      8 O         142.5707  138.4471  154.5767 O.2     1  UNL1       -0.2744
      9 C         141.6469  140.0342  156.9490 C.3     1  UNL1        0.0935
     10 C         141.1850  140.8278  158.1352 C.3     1  UNL1        0.0242
     11 C         140.4893  141.6037  159.6349 C.3     1  UNL1        0.0737
     12 C         140.5593  142.6019  166.1668 C.ar    1  UNL1        0.0174
     13 C         141.3484  141.6756  165.2898 C.ar    1  UNL1        0.0012
     14 C         140.9341  141.4575  163.8648 C.ar    1  UNL1       -0.0032
     15 C         139.7307  142.1657  163.3168 C.ar    1  UNL1       -0.0117
     16 C         138.9416  143.0920  164.1938 C.ar    1  UNL1       -0.0248
     17 C         139.3559  143.3101  165.6188 C.ar    1  UNL1       -0.0030
     18 C         137.8096  143.6474  163.3814 C.3     1  UNL1        0.0278
     19 C         137.8990  143.0642  162.0023 C.3     1  UNL1        0.0251
     20 C         139.0863  142.1485  161.9623 C.3     1  UNL1        0.0801
     21 C         144.1155  142.1891  169.9330 C.3     1  UNL1        0.0522
     22 C         142.7517  142.6137  169.4750 C.ar    1  UNL1        0.0626
     23 C         142.3374  142.3955  168.0499 C.ar    1  UNL1        0.0339
     24 C         140.9736  142.8201  167.5919 C.ar    1  UNL1        0.0842
     25 N         140.0240  143.4628  168.5590 N.ar    1  UNL1       -0.2240
     26 C         140.4382  143.6810  169.9840 C.ar    1  UNL1        0.1985
     27 N         141.8021  143.2564  170.4421 N.ar    1  UNL1       -0.2283
     28 C         141.0655  136.4634  155.3178 C.3     1  UNL1        0.1325
     29 C         141.8220  135.2834  155.8524 C.ar    1  UNL1        0.0878
     30 C         142.9903  135.3370  156.7915 C.ar    1  UNL1        0.0971
     31 N         143.4333  133.9295  157.0611 N.ar    1  UNL1       -0.2824
     32 C         144.4291  133.0927  157.8082 C.ar    1  UNL1        0.0842
     33 C         144.1500  131.6521  157.4974 C.ar    1  UNL1        0.0280
     34 C         144.9064  130.4722  158.0318 C.3     1  UNL1        0.0398
     35 S         142.9816  131.5985  156.5582 S.2     1  UNL1       -0.0529
     36 C         142.5386  133.0061  156.2886 C.ar    1  UNL1        0.1789
     37 N         141.5428  133.8428  155.5415 N.ar    1  UNL1       -0.2244
@<TRIPOS>BOND
     1    21    22    1
     2    22    23   ar
     3    23    24   ar
     4    24    12    1
     5    12    13   ar
     6    13    14   ar
     7    14    15   ar
     8    15    16   ar
     9    16    17   ar
    10    16    18    1
    11    18    19    1
    12    19    20    1
    13    20     1    1
    14     1     2    1
    15     2     3    1
    16     3     4    1
    17     4     5    1
    18     5     6    1
    19     6     7   am
    20     7     8    2
    21     7    28    1
    22    28    29    1
    23    29    30   ar
    24    30    31   ar
    25    31    32   ar
    26    32    33   ar
    27    33    34    1
    28    33    35   ar
    29    35    36   ar
    30    36    37   ar
    31     6     9    1
    32     9    10    1
    33     3    11    1
    34    24    25   ar
    35    25    26   ar
    36    26    27   ar
    37    27    22   ar
    38    17    12   ar
    39    11     1    1
    40    20    15    1
    41    10     3    1
    42    37    29   ar
    43    36    31   ar
@<TRIPOS>MOLECULE
*****
 37 43 0 0 0
SMALL
GASTEIGER

@<TRIPOS>ATOM
      1 N         139.0001  140.3513  160.9036 N.3     1  UNL1       -0.2702
      2 C         139.8951  141.3998  160.3125 C.3     1  UNL1        0.0737
      3 C         138.9920  141.4974  159.1187 C.3     1  UNL1        0.0328
      4 C         140.0902  142.4851  158.8565 C.3     1  UNL1        0.0242
      5 C         140.0846  143.2956  157.5944 C.3     1  UNL1        0.0935
      6 N         138.9807  143.1185  156.5943 N.am    1  UNL1       -0.2792
      7 C         138.9750  143.9290  155.3322 C.2     1  UNL1        0.2317
      8 O         137.8711  143.7520  154.3321 O.2     1  UNL1       -0.2744
      9 C         137.8825  142.1310  156.8564 C.3     1  UNL1        0.0935
     10 C         137.8882  141.3204  158.1186 C.3     1  UNL1        0.0242
     11 C         138.0971  140.4489  159.7098 C.3     1  UNL1        0.0737
     12 C         139.6819  140.5130  166.4844 C.ar    1  UNL1        0.0174
     13 C         139.7721  141.6656  165.5288 C.ar    1  UNL1        0.0012
     14 C         139.5609  141.4411  164.0609 C.ar    1  UNL1       -0.0032
     15 C         139.2594  140.0640  163.5485 C.ar    1  UNL1       -0.0117
     16 C         139.1692  138.9113  164.5041 C.ar    1  UNL1       -0.0248
     17 C         139.3804  139.1358  165.9720 C.ar    1  UNL1       -0.0030
     18 C         138.8598  137.6757  163.7120 C.3     1  UNL1        0.0278
     19 C         138.7588  138.0647  162.2668 C.3     1  UNL1        0.0251
     20 C         139.0058  139.5407  162.1657 C.3     1  UNL1        0.0801
     21 C         142.0400  143.0549  170.3546 C.3     1  UNL1        0.0522
     22 C         141.0722  142.0084  169.8876 C.ar    1  UNL1        0.0626
     23 C         140.8610  141.7839  168.4195 C.ar    1  UNL1        0.0339
     24 C         139.8932  140.7375  167.9524 C.ar    1  UNL1        0.0842
     25 N         139.1366  139.9154  168.9533 N.ar    1  UNL1       -0.2240
     26 C         139.3478  140.1398  170.4213 C.ar    1  UNL1        0.1985
     27 N         140.3156  141.1864  170.8885 N.ar    1  UNL1       -0.2283
     28 C         140.0732  144.9166  155.0701 C.3     1  UNL1        0.1325
     29 C         139.7753  146.3868  155.0695 C.ar    1  UNL1        0.0878
     30 C         138.9354  147.1167  156.0754 C.ar    1  UNL1        0.0971
     31 N         138.9061  148.5661  155.6904 N.ar    1  UNL1       -0.2824
     32 C         138.3689  149.9130  156.0741 C.ar    1  UNL1        0.0842
     33 C         138.8587  150.9114  155.0675 C.ar    1  UNL1        0.0280
     34 C         138.5609  152.3815  155.0668 C.3     1  UNL1        0.0398
     35 S         139.6986  150.1815  154.0616 S.2     1  UNL1       -0.0529
     36 C         139.7279  148.7320  154.4466 C.ar    1  UNL1        0.1789
     37 N         140.2651  147.3852  154.0628 N.ar    1  UNL1       -0.2244
@<TRIPOS>BOND
     1    21    22    1
     2    22    23   ar
     3    23    24   ar
     4    24    12    1
     5    12    13   ar
     6    13    14   ar
     7    14    15   ar
     8    15    16   ar
     9    16    17   ar
    10    16    18    1
    11    18    19    1
    12    19    20    1
    13    20     1    1
    14     1     2    1
    15     2     3    1
    16     3     4    1
    17     4     5    1
    18     5     6    1
    19     6     7   am
    20     7     8    2
    21     7    28    1
    22    28    29    1
    23    29    30   ar
    24    30    31   ar
    25    31    32   ar
    26    32    33   ar
    27    33    34    1
    28    33    35   ar
    29    35    36   ar
    30    36    37   ar
    31     6     9    1
    32     9    10    1
    33     3    11    1
    34    24    25   ar
    35    25    26   ar
    36    26    27   ar
    37    27    22   ar
    38    17    12   ar
    39    11     1    1
    40    20    15    1
    41    10     3    1
    42    37    29   ar
    43    36    31   ar
@<TRIPOS>MOLECULE
*****
 37 43 0 0 0
SMALL
GASTEIGER

@<TRIPOS>ATOM
      1 N         140.0842  138.9631  161.5599 N.3     1  UNL1       -0.2702
      2 C         139.0611  139.9014  160.9917 C.3     1  UNL1        0.0737
      3 C         139.3547  139.3869  159.6136 C.3     1  UNL1        0.0328
      4 C         138.2904  140.4264  159.4214 C.3     1  UNL1        0.0242
      5 C         137.7745  140.7261  158.0451 C.3     1  UNL1        0.0935
      6 N         138.3229  139.9863  156.8611 N.am    1  UNL1       -0.2792
      7 C         137.8070  140.2859  155.4848 C.2     1  UNL1        0.2317
      8 O         138.3554  139.5461  154.3008 O.2     1  UNL1       -0.2744
      9 C         139.3871  138.9468  157.0532 C.3     1  UNL1        0.0935
     10 C         139.9030  138.6471  158.4295 C.3     1  UNL1        0.0242
     11 C         140.3778  138.4486  160.1818 C.3     1  UNL1        0.0737
     12 C         141.3015  141.1370  166.6026 C.ar    1  UNL1        0.0174
     13 C         140.7578  141.8673  165.4106 C.ar    1  UNL1        0.0012
     14 C         140.4893  141.1256  164.1348 C.ar    1  UNL1       -0.0032
     15 C         140.7645  139.6534  164.0511 C.ar    1  UNL1       -0.0117
     16 C         141.3082  138.9230  165.2431 C.ar    1  UNL1       -0.0248
     17 C         141.5767  139.6648  166.5188 C.ar    1  UNL1       -0.0030
     18 C         141.4798  137.4817  164.8648 C.3     1  UNL1        0.0278
     19 C         141.0422  137.3213  163.4391 C.3     1  UNL1        0.0251
     20 C         140.6001  138.6635  162.9361 C.3     1  UNL1        0.0801
     21 C         144.6258  142.7494  170.2563 C.3     1  UNL1        0.0522
     22 C         143.2322  142.6849  169.7053 C.ar    1  UNL1        0.0626
     23 C         142.9636  141.9432  168.4295 C.ar    1  UNL1        0.0339
     24 C         141.5700  141.8787  167.8785 C.ar    1  UNL1        0.0842
     25 N         140.4449  142.5560  168.6033 N.ar    1  UNL1       -0.2240
     26 C         140.7134  143.2978  169.8791 C.ar    1  UNL1        0.1985
     27 N         142.1070  143.3622  170.4301 N.ar    1  UNL1       -0.2283
     28 C         136.7428  141.3254  155.2927 C.3     1  UNL1        0.1325
     29 C         135.3144  141.0059  155.6209 C.ar    1  UNL1        0.0878
     30 C         134.1059  141.7029  155.0696 C.ar    1  UNL1        0.0971
     31 N         132.8884  141.0612  155.6661 N.ar    1  UNL1       -0.2824
     32 C         131.3891  141.0953  155.6940 C.ar    1  UNL1        0.0842
     33 C         130.9184  140.0229  156.6312 C.ar    1  UNL1        0.0280
     34 C         129.4900  139.7035  156.9595 C.3     1  UNL1        0.0398
     35 S         132.1268  139.3260  157.1825 S.2     1  UNL1       -0.0529
     36 C         133.3444  139.9677  156.5860 C.ar    1  UNL1        0.1789
     37 N         134.8437  139.9335  156.5581 N.ar    1  UNL1       -0.2244
@<TRIPOS>BOND
     1    21    22    1
     2    22    23   ar
     3    23    24   ar
     4    24    12    1
     5    12    13   ar
     6    13    14   ar
     7    14    15   ar
     8    15    16   ar
     9    16    17   ar
    10    16    18    1
    11    18    19    1
    12    19    20    1
    13    20     1    1
    14     1     2    1
    15     2     3    1
    16     3     4    1
    17     4     5    1
    18     5     6    1
    19     6     7   am
    20     7     8    2
    21     7    28    1
    22    28    29    1
    23    29    30   ar
    24    30    31   ar
    25    31    32   ar
    26    32    33   ar
    27    33    34    1
    28    33    35   ar
    29    35    36   ar
    30    36    37   ar
    31     6     9    1
    32     9    10    1
    33     3    11    1
    34    24    25   ar
    35    25    26   ar
    36    26    27   ar
    37    27    22   ar
    38    17    12   ar
    39    11     1    1
    40    20    15    1
    41    10     3    1
    42    37    29   ar
    43    36    31   ar
@<TRIPOS>MOLECULE
*****
 37 43 0 0 0
SMALL
GASTEIGER

@<TRIPOS>ATOM
      1 N         141.2831  139.2461  161.0262 N.3     1  UNL1       -0.2702
      2 C         142.0532  140.4600  160.5980 C.3     1  UNL1        0.0737
      3 C         142.4204  139.7745  159.3153 C.3     1  UNL1        0.0328
      4 C         143.0693  141.1245  159.2336 C.3     1  UNL1        0.0242
      5 C         143.8734  141.4982  158.0238 C.3     1  UNL1        0.0935
      6 N         144.0288  140.5220  156.8956 N.am    1  UNL1       -0.2792
      7 C         144.8329  140.8956  155.6858 C.2     1  UNL1        0.2317
      8 O         144.9883  139.9193  154.5576 O.2     1  UNL1       -0.2744
      9 C         143.3799  139.1720  156.9772 C.3     1  UNL1        0.0935
     10 C         142.5757  138.7983  158.1871 C.3     1  UNL1        0.0242
     11 C         141.6503  138.5606  159.7434 C.3     1  UNL1        0.0737
     12 C         140.2979  140.3951  166.4433 C.ar    1  UNL1        0.0174
     13 C         141.2767  141.0812  165.5371 C.ar    1  UNL1        0.0012
     14 C         141.4110  140.6429  164.1089 C.ar    1  UNL1       -0.0032
     15 C         140.5664  139.5185  163.5869 C.ar    1  UNL1       -0.0117
     16 C         139.5876  138.8324  164.4931 C.ar    1  UNL1       -0.0248
     17 C         139.4534  139.2707  165.9213 C.ar    1  UNL1       -0.0030
     18 C         138.8952  137.7623  163.7023 C.3     1  UNL1        0.0278
     19 C         139.4460  137.7870  162.3073 C.3     1  UNL1        0.0251
     20 C         140.4789  138.8724  162.2359 C.3     1  UNL1        0.0801
     21 C         140.4463  144.1512  170.0308 C.3     1  UNL1        0.0522
     22 C         140.2378  142.7115  169.6653 C.ar    1  UNL1        0.0626
     23 C         140.3721  142.2732  168.2370 C.ar    1  UNL1        0.0339
     24 C         140.1636  140.8334  167.8716 C.ar    1  UNL1        0.0842
     25 N         139.8208  139.8319  168.9344 N.ar    1  UNL1       -0.2240
     26 C         139.6865  140.2702  170.3626 C.ar    1  UNL1        0.1985
     27 N         139.8950  141.7100  170.7281 N.ar    1  UNL1       -0.2283
     28 C         145.4818  142.2455  155.6042 C.3     1  UNL1        0.1325
     29 C         146.8766  142.3761  155.0678 C.ar    1  UNL1        0.0878
     30 C         148.0953  141.6841  155.6025 C.ar    1  UNL1        0.0971
     31 N         149.2693  142.1019  154.7677 N.ar    1  UNL1       -0.2824
     32 C         150.7481  141.9325  154.5822 C.ar    1  UNL1        0.0842
     33 C         151.1690  142.7779  153.4169 C.ar    1  UNL1        0.0280
     34 C         152.5637  142.9085  152.8804 C.3     1  UNL1        0.0398
     35 S         149.9503  143.4699  152.8821 S.2     1  UNL1       -0.0529
     36 C         148.7762  143.0521  153.7170 C.ar    1  UNL1        0.1789
     37 N         147.2975  143.2215  153.9024 N.ar    1  UNL1       -0.2244
@<TRIPOS>BOND
     1    21    22    1
     2    22    23   ar
     3    23    24   ar
     4    24    12    1
     5    12    13   ar
     6    13    14   ar
     7    14    15   ar
     8    15    16   ar
     9    16    17   ar
    10    16    18    1
    11    18    19    1
    12    19    20    1
    13    20     1    1
    14     1     2    1
    15     2     3    1
    16     3     4    1
    17     4     5    1
    18     5     6    1
    19     6     7   am
    20     7     8    2
    21     7    28    1
    22    28    29    1
    23    29    30   ar
    24    30    31   ar
    25    31    32   ar
    26    32    33   ar
    27    33    34    1
    28    33    35   ar
    29    35    36   ar
    30    36    37   ar
    31     6     9    1
    32     9    10    1
    33     3    11    1
    34    24    25   ar
    35    25    26   ar
    36    26    27   ar
    37    27    22   ar
    38    17    12   ar
    39    11     1    1
    40    20    15    1
    41    10     3    1
    42    37    29   ar
    43    36    31   ar
@<TRIPOS>MOLECULE
*****
 37 43 0 0 0
SMALL
GASTEIGER

@<TRIPOS>ATOM
      1 N         138.8367  141.7382  158.2698 N.3     1  UNL1       -0.2702
      2 C         139.8767  141.9628  159.3272 C.3     1  UNL1        0.0737
      3 C         139.6947  140.5529  159.8056 C.3     1  UNL1        0.0328
      4 C         140.7464  141.1347  160.7031 C.3     1  UNL1        0.0242
      5 C         141.3531  140.2966  161.7891 C.3     1  UNL1        0.0935
      6 N         140.9082  138.8765  161.9776 N.am    1  UNL1       -0.2792
      7 C         141.5149  138.0383  163.0635 C.2     1  UNL1        0.2317
      8 O         141.0700  136.6182  163.2520 O.2     1  UNL1       -0.2744
      9 C         139.8566  138.2946  161.0801 C.3     1  UNL1        0.0935
     10 C         139.2498  139.1328  159.9940 C.3     1  UNL1        0.0242
     11 C         138.6548  140.3282  158.7482 C.3     1  UNL1        0.0737
     12 C         139.2095  146.5775  155.4276 C.ar    1  UNL1        0.0174
     13 C         140.1086  146.1060  156.5317 C.ar    1  UNL1        0.0012
     14 C         139.8621  144.7780  157.1842 C.ar    1  UNL1       -0.0032
     15 C         138.7165  143.9216  156.7324 C.ar    1  UNL1       -0.0117
     16 C         137.8174  144.3931  155.6282 C.ar    1  UNL1       -0.0248
     17 C         138.0639  145.7210  154.9758 C.ar    1  UNL1       -0.0030
     18 C         136.7752  143.3393  155.3972 C.3     1  UNL1        0.0278
     19 C         137.0302  142.2165  156.3586 C.3     1  UNL1        0.0251
     20 C         138.2300  142.5763  157.1839 C.3     1  UNL1        0.0801
     21 C         138.5579  151.7317  155.3263 C.3     1  UNL1        0.0522
     22 C         139.1302  150.4826  154.7244 C.ar    1  UNL1        0.0626
     23 C         138.8837  149.1546  155.3769 C.ar    1  UNL1        0.0339
     24 C         139.4560  147.9055  154.7751 C.ar    1  UNL1        0.0842
     25 N         140.2747  147.9844  153.5207 N.ar    1  UNL1       -0.2240
     26 C         140.5212  149.3123  152.8682 C.ar    1  UNL1        0.1985
     27 N         139.9489  150.5615  153.4701 N.ar    1  UNL1       -0.2283
     28 C         142.5665  138.6202  163.9610 C.3     1  UNL1        0.1325
     29 C         142.2167  139.0238  165.3628 C.ar    1  UNL1        0.0878
     30 C         143.0935  138.8683  166.5699 C.ar    1  UNL1        0.0971
     31 N         142.3474  139.4021  167.7566 N.ar    1  UNL1       -0.2824
     32 C         142.4281  139.6359  169.2360 C.ar    1  UNL1        0.0842
     33 C         141.1401  140.2658  169.6768 C.ar    1  UNL1        0.0280
     34 C         140.7903  140.6693  171.0785 C.3     1  UNL1        0.0398
     35 S         140.2633  140.4212  168.4697 S.2     1  UNL1       -0.0529
     36 C         141.0094  139.8874  167.2829 C.ar    1  UNL1        0.1789
     37 N         140.9287  139.6536  165.8035 N.ar    1  UNL1       -0.2244
@<TRIPOS>BOND
     1    21    22    1
     2    22    23   ar
     3    23    24   ar
     4    24    12    1
     5    12    13   ar
     6    13    14   ar
     7    14    15   ar
     8    15    16   ar
     9    16    17   ar
    10    16    18    1
    11    18    19    1
    12    19    20    1
    13    20     1    1
    14     1     2    1
    15     2     3    1
    16     3     4    1
    17     4     5    1
    18     5     6    1
    19     6     7   am
    20     7     8    2
    21     7    28    1
    22    28    29    1
    23    29    30   ar
    24    30    31   ar
    25    31    32   ar
    26    32    33   ar
    27    33    34    1
    28    33    35   ar
    29    35    36   ar
    30    36    37   ar
    31     6     9    1
    32     9    10    1
    33     3    11    1
    34    24    25   ar
    35    25    26   ar
    36    26    27   ar
    37    27    22   ar
    38    17    12   ar
    39    11     1    1
    40    20    15    1
    41    10     3    1
    42    37    29   ar
    43    36    31   ar
@<TRIPOS>MOLECULE
*****
 37 43 0 0 0
SMALL
GASTEIGER

@<TRIPOS>ATOM
      1 N         140.4912  138.7988  161.9241 N.3     1  UNL1       -0.2702
      2 C         141.4378  138.0313  161.0496 C.3     1  UNL1        0.0737
      3 C         141.3533  139.1104  160.0112 C.3     1  UNL1        0.0328
      4 C         142.2895  138.0897  159.4351 C.3     1  UNL1        0.0242
      5 C         142.8991  138.3100  158.0824 C.3     1  UNL1        0.0935
      6 N         142.5725  139.5510  157.3057 N.am    1  UNL1       -0.2792
      7 C         143.1821  139.7713  155.9530 C.2     1  UNL1        0.2317
      8 O         142.8554  141.0122  155.1762 O.2     1  UNL1       -0.2744
      9 C         141.6363  140.5716  157.8816 C.3     1  UNL1        0.0935
     10 C         141.0266  140.3513  159.2344 C.3     1  UNL1        0.0242
     11 C         140.4067  139.8779  160.8857 C.3     1  UNL1        0.0737
     12 C         140.3340  140.5811  167.2566 C.ar    1  UNL1        0.0174
     13 C         141.1608  141.1445  166.1390 C.ar    1  UNL1        0.0012
     14 C         141.0789  140.5418  164.7680 C.ar    1  UNL1       -0.0032
     15 C         140.1701  139.3757  164.5144 C.ar    1  UNL1       -0.0117
     16 C         139.3433  138.8123  165.6319 C.ar    1  UNL1       -0.0248
     17 C         139.4253  139.4150  167.0030 C.ar    1  UNL1       -0.0030
     18 C         138.5438  137.6669  165.0851 C.3     1  UNL1        0.0278
     19 C         138.8765  137.5225  163.6296 C.3     1  UNL1        0.0251
     20 C         139.8816  138.5785  163.2768 C.3     1  UNL1        0.0801
     21 C         140.2218  144.7528  170.3526 C.3     1  UNL1        0.0522
     22 C         140.3598  143.2697  170.1758 C.ar    1  UNL1        0.0626
     23 C         140.2779  142.6670  168.8046 C.ar    1  UNL1        0.0339
     24 C         140.4159  141.1839  168.6278 C.ar    1  UNL1        0.0842
     25 N         140.6359  140.3034  169.8221 N.ar    1  UNL1       -0.2240
     26 C         140.7179  140.9061  171.1932 C.ar    1  UNL1        0.1985
     27 N         140.5798  142.3892  171.3701 N.ar    1  UNL1       -0.2283
     28 C         144.1183  138.7506  155.3770 C.3     1  UNL1        0.1325
     29 C         143.6164  137.3774  155.0414 C.ar    1  UNL1        0.0878
     30 C         142.5551  137.0485  154.0337 C.ar    1  UNL1        0.0971
     31 N         142.3706  135.5600  154.0241 N.ar    1  UNL1       -0.2824
     32 C         141.6005  134.4367  153.3953 C.ar    1  UNL1        0.0842
     33 C         142.0719  133.1514  154.0083 C.ar    1  UNL1        0.0280
     34 C         141.5701  131.7783  153.6727 C.3     1  UNL1        0.0398
     35 S         143.1333  133.4803  155.0160 S.2     1  UNL1       -0.0529
     36 C         143.3179  134.9689  155.0257 C.ar    1  UNL1        0.1789
     37 N         144.0878  136.0922  155.6544 N.ar    1  UNL1       -0.2244
@<TRIPOS>BOND
     1    21    22    1
     2    22    23   ar
     3    23    24   ar
     4    24    12    1
     5    12    13   ar
     6    13    14   ar
     7    14    15   ar
     8    15    16   ar
     9    16    17   ar
    10    16    18    1
    11    18    19    1
    12    19    20    1
    13    20     1    1
    14     1     2    1
    15     2     3    1
    16     3     4    1
    17     4     5    1
    18     5     6    1
    19     6     7   am
    20     7     8    2
    21     7    28    1
    22    28    29    1
    23    29    30   ar
    24    30    31   ar
    25    31    32   ar
    26    32    33   ar
    27    33    34    1
    28    33    35   ar
    29    35    36   ar
    30    36    37   ar
    31     6     9    1
    32     9    10    1
    33     3    11    1
    34    24    25   ar
    35    25    26   ar
    36    26    27   ar
    37    27    22   ar
    38    17    12   ar
    39    11     1    1
    40    20    15    1
    41    10     3    1
    42    37    29   ar
    43    36    31   ar
@<TRIPOS>MOLECULE
*****
 37 43 0 0 0
SMALL
GASTEIGER

@<TRIPOS>ATOM
      1 N         140.0614  139.7967  160.1551 N.3     1  UNL1       -0.2702
      2 C         141.3216  139.0795  159.7711 C.3     1  UNL1        0.0737
      3 C         140.6465  138.5531  158.5393 C.3     1  UNL1        0.0328
      4 C         142.0385  137.9965  158.4871 C.3     1  UNL1        0.0242
      5 C         142.4522  137.1170  157.3446 C.3     1  UNL1        0.0935
      6 N         141.4740  136.7941  156.2542 N.am    1  UNL1       -0.2792
      7 C         141.8877  135.9147  155.1117 C.2     1  UNL1        0.2317
      8 O         140.9095  135.5918  154.0214 O.2     1  UNL1       -0.2744
      9 C         140.0821  137.3506  156.3064 C.3     1  UNL1        0.0935
     10 C         139.6683  138.2301  157.4490 C.3     1  UNL1        0.0242
     11 C         139.3863  139.2703  158.9234 C.3     1  UNL1        0.0737
     12 C         140.5908  140.7397  165.6748 C.ar    1  UNL1        0.0174
     13 C         141.2436  139.6499  164.8771 C.ar    1  UNL1        0.0012
     14 C         140.9897  139.5450  163.4025 C.ar    1  UNL1       -0.0032
     15 C         140.0831  140.5298  162.7256 C.ar    1  UNL1       -0.0117
     16 C         139.4304  141.6196  163.5233 C.ar    1  UNL1       -0.0248
     17 C         139.6842  141.7245  164.9979 C.ar    1  UNL1       -0.0030
     18 C         138.5915  142.4394  162.5884 C.3     1  UNL1        0.0278
     19 C         138.7257  141.8564  161.2128 C.3     1  UNL1        0.0251
     20 C         139.6476  140.6762  161.2976 C.3     1  UNL1        0.0801
     21 C         143.6171  142.2361  169.6248 C.3     1  UNL1        0.0522
     22 C         142.3578  141.5928  169.1245 C.ar    1  UNL1        0.0626
     23 C         142.1040  141.4879  167.6498 C.ar    1  UNL1        0.0339
     24 C         140.8447  140.8446  167.1495 C.ar    1  UNL1        0.0842
     25 N         139.8392  140.3063  168.1237 N.ar    1  UNL1       -0.2240
     26 C         140.0930  140.4112  169.5983 C.ar    1  UNL1        0.1985
     27 N         141.3523  141.0545  170.0988 N.ar    1  UNL1       -0.2283
     28 C         143.2797  135.3582  155.0595 C.3     1  UNL1        0.1325
     29 C         143.5527  133.9721  155.5642 C.ar    1  UNL1        0.0878
     30 C         143.2397  132.6941  154.8440 C.ar    1  UNL1        0.0971
     31 N         143.6802  131.5530  155.7123 N.ar    1  UNL1       -0.2824
     32 C         143.7590  130.0579  155.8038 C.ar    1  UNL1        0.0842
     33 C         144.3929  129.7067  157.1171 C.ar    1  UNL1        0.0280
     34 C         144.6659  128.3207  157.6217 C.3     1  UNL1        0.0398
     35 S         144.7058  130.9847  157.8372 S.2     1  UNL1       -0.0529
     36 C         144.2654  132.1259  156.9690 C.ar    1  UNL1        0.1789
     37 N         144.1866  133.6209  156.8775 N.ar    1  UNL1       -0.2244
@<TRIPOS>BOND
     1    21    22    1
     2    22    23   ar
     3    23    24   ar
     4    24    12    1
     5    12    13   ar
     6    13    14   ar
     7    14    15   ar
     8    15    16   ar
     9    16    17   ar
    10    16    18    1
    11    18    19    1
    12    19    20    1
    13    20     1    1
    14     1     2    1
    15     2     3    1
    16     3     4    1
    17     4     5    1
    18     5     6    1
    19     6     7   am
    20     7     8    2
    21     7    28    1
    22    28    29    1
    23    29    30   ar
    24    30    31   ar
    25    31    32   ar
    26    32    33   ar
    27    33    34    1
    28    33    35   ar
    29    35    36   ar
    30    36    37   ar
    31     6     9    1
    32     9    10    1
    33     3    11    1
    34    24    25   ar
    35    25    26   ar
    36    26    27   ar
    37    27    22   ar
    38    17    12   ar
    39    11     1    1
    40    20    15    1
    41    10     3    1
    42    37    29   ar
    43    36    31   ar
