@<TRIPOS>MOLECULE
*****
 36 39 0 0 0
SMALL
GASTEIGER

@<TRIPOS>ATOM
      1 C         140.8615  141.9845  157.8414 C.2     1  UNL1        0.2502
      2 O         141.1011  141.3472  156.5049 O.2     1  UNL1       -0.2699
      3 N         139.9880  143.1993  157.9472 N.am    1  UNL1       -0.2742
      4 C         139.3540  143.7767  156.7165 C.3     1  UNL1        0.1152
      5 N         143.1126  140.8699  160.8004 N.ar    1  UNL1       -0.3305
      6 C         141.8295  140.1672  161.1316 C.ar    1  UNL1        0.0598
      7 C         140.8301  140.4991  160.0635 C.ar    1  UNL1        0.0228
      8 C         141.4955  141.4071  159.0721 C.ar    1  UNL1        0.0666
      9 C         142.9062  141.6363  159.5276 C.ar    1  UNL1        0.0418
     10 C         143.9306  142.4831  158.8323 C.3     1  UNL1        0.0502
     11 C         141.5882  139.2869  162.3220 C.ar    1  UNL1        0.0158
     12 C         140.6869  138.0939  162.2022 C.ar    1  UNL1        0.0014
     13 C         140.4457  137.2137  163.3926 C.ar    1  UNL1        0.0000
     14 C         141.1056  137.5266  164.7028 C.ar    1  UNL1        0.0000
     15 C         142.0069  138.7196  164.8226 C.ar    1  UNL1        0.0000
     16 C         142.2481  139.5998  163.6322 C.ar    1  UNL1        0.0014
     17 C         144.3797  140.8159  161.6014 C.3     1  UNL1        0.1057
     18 C         145.4523  141.7665  163.7684 C.3     1  UNL1        0.0021
     19 C         144.7854  141.9891  162.4433 C.3     1  UNL1        0.0245
     20 C         139.7484  143.8367  159.2838 C.3     1  UNL1        0.0952
     21 C         140.5845  145.0035  159.7189 C.3     1  UNL1        0.0388
     22 C         140.4439  145.5502  161.1087 C.3     1  UNL1        0.0740
     23 N         140.2666  144.6152  162.2681 N.3     1  UNL1       -0.2697
     24 C         139.0040  144.6543  163.0768 C.3     1  UNL1        0.0938
     25 C         138.8266  143.7193  164.2362 C.3     1  UNL1        0.1081
     26 N         139.9119  142.7451  164.5868 N.pl3   1  UNL1       -0.3049
     27 C         141.1745  142.7059  163.7781 C.3     1  UNL1        0.1081
     28 C         141.3519  143.6409  162.6187 C.3     1  UNL1        0.0938
     29 C         139.7345  141.8100  165.7462 C.ar    1  UNL1        0.0436
     30 C         140.3713  142.1243  167.0675 C.ar    1  UNL1        0.0142
     31 C         140.1939  141.1892  168.2269 C.ar    1  UNL1        0.0009
     32 C         139.3798  139.9398  168.0651 C.ar    1  UNL1       -0.0045
     33 C         138.7431  139.6255  166.7439 C.ar    1  UNL1       -0.0246
     34 C         137.9289  138.3761  166.5819 C.3     1  UNL1        0.0307
     35 C         138.9204  140.5606  165.5844 C.ar    1  UNL1       -0.0125
     36 C         138.2836  140.2462  164.2631 C.3     1  UNL1        0.0320
@<TRIPOS>BOND
     1    18    19    1
     2    19    17    1
     3    17     5    1
     4     5     6   ar
     5     6    11    1
     6    11    12   ar
     7    12    13   ar
     8    13    14   ar
     9    14    15   ar
    10    15    16   ar
    11     6     7   ar
    12     7     8   ar
    13     8     1    1
    14     1     2    2
    15     1     3   am
    16     3     4    1
    17     3    20    1
    18    20    21    1
    19    21    22    1
    20    22    23    1
    21    23    24    1
    22    24    25    1
    23    25    26    1
    24    26    29    1
    25    29    30   ar
    26    30    31   ar
    27    31    32   ar
    28    32    33   ar
    29    33    34    1
    30    33    35   ar
    31    35    36    1
    32    26    27    1
    33    27    28    1
    34     8     9   ar
    35     9    10    1
    36     9     5   ar
    37    16    11   ar
    38    28    23    1
    39    35    29   ar
@<TRIPOS>MOLECULE
*****
 36 39 0 0 0
SMALL
GASTEIGER

@<TRIPOS>ATOM
      1 C         142.9541  140.4561  159.6749 C.2     1  UNL1        0.2502
      2 O         143.8610  141.1655  158.7135 O.2     1  UNL1       -0.2699
      3 N         142.4550  139.0777  159.3571 N.am    1  UNL1       -0.2742
      4 C         142.8629  138.4088  158.0779 C.3     1  UNL1        0.1152
      5 N         142.6162  142.0744  163.1866 N.ar    1  UNL1       -0.3305
      6 C         141.2214  142.2342  162.6584 C.ar    1  UNL1        0.0598
      7 C         141.1782  141.6474  161.2786 C.ar    1  UNL1        0.0228
      8 C         142.5463  141.1250  160.9541 C.ar    1  UNL1        0.0666
      9 C         143.4351  141.3889  162.1333 C.ar    1  UNL1        0.0418
     10 C         144.8876  141.0302  162.2404 C.3     1  UNL1        0.0502
     11 C         140.0716  142.8693  163.3828 C.ar    1  UNL1        0.0158
     12 C         138.8554  142.0576  163.7171 C.ar    1  UNL1        0.0014
     13 C         137.7057  142.6927  164.4415 C.ar    1  UNL1        0.0000
     14 C         137.7722  144.1396  164.8316 C.ar    1  UNL1        0.0000
     15 C         138.9885  144.9513  164.4973 C.ar    1  UNL1        0.0000
     16 C         140.1382  144.3162  163.7729 C.ar    1  UNL1        0.0014
     17 C         143.1061  142.5216  164.5320 C.3     1  UNL1        0.1057
     18 C         143.8502  144.7919  163.5112 C.3     1  UNL1        0.0021
     19 C         143.6718  143.9001  164.7040 C.3     1  UNL1        0.0245
     20 C         141.5482  138.3683  160.3184 C.3     1  UNL1        0.0952
     21 C         142.0815  137.8835  161.6339 C.3     1  UNL1        0.0388
     22 C         141.1353  137.5392  162.7459 C.3     1  UNL1        0.0740
     23 N         141.2577  138.2253  164.0741 N.3     1  UNL1       -0.2697
     24 C         140.0305  138.5032  164.8906 C.3     1  UNL1        0.0938
     25 C         140.1529  139.1893  166.2189 C.3     1  UNL1        0.1081
     26 N         141.5024  139.5975  166.7307 N.pl3   1  UNL1       -0.3049
     27 C         142.7297  139.3195  165.9142 C.3     1  UNL1        0.1081
     28 C         142.6073  138.6335  164.5860 C.3     1  UNL1        0.0938
     29 C         141.6248  140.2835  168.0589 C.ar    1  UNL1        0.0436
     30 C         142.2858  139.5813  169.2078 C.ar    1  UNL1        0.0142
     31 C         142.4082  140.2674  170.5361 C.ar    1  UNL1        0.0009
     32 C         141.8695  141.6558  170.7155 C.ar    1  UNL1       -0.0045
     33 C         141.2085  142.3580  169.5667 C.ar    1  UNL1       -0.0246
     34 C         140.6698  143.7464  169.7461 C.3     1  UNL1        0.0307
     35 C         141.0861  141.6719  168.2384 C.ar    1  UNL1       -0.0125
     36 C         140.4251  142.3743  167.0896 C.3     1  UNL1        0.0320
@<TRIPOS>BOND
     1    18    19    1
     2    19    17    1
     3    17     5    1
     4     5     6   ar
     5     6    11    1
     6    11    12   ar
     7    12    13   ar
     8    13    14   ar
     9    14    15   ar
    10    15    16   ar
    11     6     7   ar
    12     7     8   ar
    13     8     1    1
    14     1     2    2
    15     1     3   am
    16     3     4    1
    17     3    20    1
    18    20    21    1
    19    21    22    1
    20    22    23    1
    21    23    24    1
    22    24    25    1
    23    25    26    1
    24    26    29    1
    25    29    30   ar
    26    30    31   ar
    27    31    32   ar
    28    32    33   ar
    29    33    34    1
    30    33    35   ar
    31    35    36    1
    32    26    27    1
    33    27    28    1
    34     8     9   ar
    35     9    10    1
    36     9     5   ar
    37    16    11   ar
    38    28    23    1
    39    35    29   ar
@<TRIPOS>MOLECULE
*****
 36 39 0 0 0
SMALL
GASTEIGER

@<TRIPOS>ATOM
      1 C         143.0835  139.7608  160.9388 C.2     1  UNL1        0.2502
      2 O         144.4520  139.1853  161.1530 O.2     1  UNL1       -0.2699
      3 N         142.1128  139.0684  160.0287 N.am    1  UNL1       -0.2742
      4 C         142.5105  137.8005  159.3329 C.3     1  UNL1        0.1152
      5 N         142.7296  143.2899  162.5155 N.ar    1  UNL1       -0.3305
      6 C         141.4175  142.6699  162.8951 C.ar    1  UNL1        0.0598
      7 C         141.3904  141.2725  162.3507 C.ar    1  UNL1        0.0228
      8 C         142.6857  141.0288  161.6346 C.ar    1  UNL1        0.0666
      9 C         143.5134  142.2756  161.7364 C.ar    1  UNL1        0.0418
     10 C         144.8842  142.4734  161.1604 C.3     1  UNL1        0.0502
     11 C         140.3245  143.3314  163.6811 C.ar    1  UNL1        0.0158
     12 C         140.4967  143.5687  165.1522 C.ar    1  UNL1        0.0014
     13 C         139.4037  144.2301  165.9381 C.ar    1  UNL1        0.0000
     14 C         138.1384  144.6541  165.2531 C.ar    1  UNL1        0.0000
     15 C         137.9662  144.4167  163.7821 C.ar    1  UNL1        0.0000
     16 C         139.0592  143.7554  162.9961 C.ar    1  UNL1        0.0014
     17 C         143.1790  144.6801  162.8552 C.3     1  UNL1        0.1057
     18 C         144.2753  143.8663  165.0657 C.3     1  UNL1        0.0021
     19 C         143.7319  144.9777  164.2175 C.3     1  UNL1        0.0245
     20 C         140.7442  139.6440  159.8145 C.3     1  UNL1        0.0952
     21 C         139.5608  138.7328  159.6758 C.3     1  UNL1        0.0388
     22 C         139.1147  137.9001  160.8410 C.3     1  UNL1        0.0740
     23 N         139.3605  138.3773  162.2417 N.3     1  UNL1       -0.2697
     24 C         140.4540  137.7610  163.0628 C.3     1  UNL1        0.0938
     25 C         140.6999  138.2382  164.4635 C.3     1  UNL1        0.1081
     26 N         139.8523  139.3316  165.0430 N.pl3   1  UNL1       -0.3049
     27 C         138.7587  139.9479  164.2218 C.3     1  UNL1        0.1081
     28 C         138.5128  139.4707  162.8212 C.3     1  UNL1        0.0938
     29 C         140.0981  139.8087  166.4436 C.ar    1  UNL1        0.0436
     30 C         139.0241  139.6724  167.4819 C.ar    1  UNL1        0.0142
     31 C         139.2700  140.1495  168.8825 C.ar    1  UNL1        0.0009
     32 C         140.5899  140.7631  169.2450 C.ar    1  UNL1       -0.0045
     33 C         141.6639  140.8994  168.2069 C.ar    1  UNL1       -0.0246
     34 C         142.9838  141.5129  168.5693 C.3     1  UNL1        0.0307
     35 C         141.4181  140.4222  166.8061 C.ar    1  UNL1       -0.0125
     36 C         142.4921  140.5586  165.7680 C.3     1  UNL1        0.0320
@<TRIPOS>BOND
     1    18    19    1
     2    19    17    1
     3    17     5    1
     4     5     6   ar
     5     6    11    1
     6    11    12   ar
     7    12    13   ar
     8    13    14   ar
     9    14    15   ar
    10    15    16   ar
    11     6     7   ar
    12     7     8   ar
    13     8     1    1
    14     1     2    2
    15     1     3   am
    16     3     4    1
    17     3    20    1
    18    20    21    1
    19    21    22    1
    20    22    23    1
    21    23    24    1
    22    24    25    1
    23    25    26    1
    24    26    29    1
    25    29    30   ar
    26    30    31   ar
    27    31    32   ar
    28    32    33   ar
    29    33    34    1
    30    33    35   ar
    31    35    36    1
    32    26    27    1
    33    27    28    1
    34     8     9   ar
    35     9    10    1
    36     9     5   ar
    37    16    11   ar
    38    28    23    1
    39    35    29   ar
@<TRIPOS>MOLECULE
*****
 36 39 0 0 0
SMALL
GASTEIGER

@<TRIPOS>ATOM
      1 C         142.2485  139.2038  158.7466 C.2     1  UNL1        0.2502
      2 O         143.3725  138.5429  158.0051 O.2     1  UNL1       -0.2699
      3 N         140.8571  139.1669  158.1875 N.am    1  UNL1       -0.2742
      4 C         140.5897  138.4691  156.8869 C.3     1  UNL1        0.1152
      5 N         143.1873  140.3344  162.3391 N.ar    1  UNL1       -0.3305
      6 C         142.6676  141.6161  161.7584 C.ar    1  UNL1        0.0598
      7 C         142.2527  141.3486  160.3419 C.ar    1  UNL1        0.0228
      8 C         142.5160  139.9015  160.0473 C.ar    1  UNL1        0.0666
      9 C         143.0936  139.2747  161.2817 C.ar    1  UNL1        0.0418
     10 C         143.5051  137.8402  161.4321 C.3     1  UNL1        0.0502
     11 C         142.5785  142.9340  162.4693 C.ar    1  UNL1        0.0158
     12 C         141.2849  143.3619  163.0964 C.ar    1  UNL1        0.0014
     13 C         141.1958  144.6797  163.8073 C.ar    1  UNL1        0.0000
     14 C         142.4004  145.5696  163.8910 C.ar    1  UNL1        0.0000
     15 C         143.6941  145.1417  163.2639 C.ar    1  UNL1        0.0000
     16 C         143.7831  143.8239  162.5530 C.ar    1  UNL1        0.0014
     17 C         143.7091  140.1456  163.7327 C.3     1  UNL1        0.1057
     18 C         145.9134  141.5146  163.8622 C.3     1  UNL1        0.0021
     19 C         145.1842  140.2106  163.9965 C.3     1  UNL1        0.0245
     20 C         139.7332  139.8277  158.9291 C.3     1  UNL1        0.0952
     21 C         138.8581  139.0192  159.8404 C.3     1  UNL1        0.0388
     22 C         139.4726  138.0389  160.7953 C.3     1  UNL1        0.0740
     23 N         139.7667  138.4510  162.2072 N.3     1  UNL1       -0.2697
     24 C         139.5361  139.8690  162.6382 C.3     1  UNL1        0.0938
     25 C         139.8302  140.2811  164.0502 C.3     1  UNL1        0.1081
     26 N         140.3548  139.2750  165.0312 N.pl3   1  UNL1       -0.3049
     27 C         140.5855  137.8569  164.6003 C.3     1  UNL1        0.1081
     28 C         140.2914  137.4449  163.1883 C.3     1  UNL1        0.0938
     29 C         140.6489  139.6871  166.4432 C.ar    1  UNL1        0.0436
     30 C         142.0423  140.0809  166.8349 C.ar    1  UNL1        0.0142
     31 C         142.3364  140.4929  168.2469 C.ar    1  UNL1        0.0009
     32 C         141.2370  140.5112  169.2673 C.ar    1  UNL1       -0.0045
     33 C         139.8437  140.1174  168.8756 C.ar    1  UNL1       -0.0246
     34 C         138.7444  140.1356  169.8959 C.3     1  UNL1        0.0307
     35 C         139.5496  139.7053  167.4636 C.ar    1  UNL1       -0.0125
     36 C         138.1562  139.3115  167.0720 C.3     1  UNL1        0.0320
@<TRIPOS>BOND
     1    18    19    1
     2    19    17    1
     3    17     5    1
     4     5     6   ar
     5     6    11    1
     6    11    12   ar
     7    12    13   ar
     8    13    14   ar
     9    14    15   ar
    10    15    16   ar
    11     6     7   ar
    12     7     8   ar
    13     8     1    1
    14     1     2    2
    15     1     3   am
    16     3     4    1
    17     3    20    1
    18    20    21    1
    19    21    22    1
    20    22    23    1
    21    23    24    1
    22    24    25    1
    23    25    26    1
    24    26    29    1
    25    29    30   ar
    26    30    31   ar
    27    31    32   ar
    28    32    33   ar
    29    33    34    1
    30    33    35   ar
    31    35    36    1
    32    26    27    1
    33    27    28    1
    34     8     9   ar
    35     9    10    1
    36     9     5   ar
    37    16    11   ar
    38    28    23    1
    39    35    29   ar
@<TRIPOS>MOLECULE
*****
 36 39 0 0 0
SMALL
GASTEIGER

@<TRIPOS>ATOM
      1 C         142.2528  142.5982  158.6879 C.2     1  UNL1        0.2502
      2 O         143.3251  142.3058  157.6805 O.2     1  UNL1       -0.2699
      3 N         141.6344  143.9634  158.7501 N.am    1  UNL1       -0.2742
      4 C         142.0882  145.0361  157.8050 C.3     1  UNL1        0.1152
      5 N         140.6223  139.6202  160.5689 N.ar    1  UNL1       -0.3305
      6 C         141.5790  140.1292  161.6060 C.ar    1  UNL1        0.0598
      7 C         142.3062  141.3067  161.0276 C.ar    1  UNL1        0.0228
      8 C         141.7990  141.5255  159.6330 C.ar    1  UNL1        0.0666
      9 C         140.7582  140.4831  159.3495 C.ar    1  UNL1        0.0418
     10 C         139.9886  140.3305  158.0711 C.3     1  UNL1        0.0502
     11 C         141.7742  139.5605  162.9803 C.ar    1  UNL1        0.0158
     12 C         141.2330  138.2018  163.3135 C.ar    1  UNL1        0.0014
     13 C         141.4282  137.6332  164.6877 C.ar    1  UNL1        0.0000
     14 C         142.1645  138.4232  165.7287 C.ar    1  UNL1        0.0000
     15 C         142.7057  139.7819  165.3955 C.ar    1  UNL1        0.0000
     16 C         142.5105  140.3506  164.0212 C.ar    1  UNL1        0.0014
     17 C         139.6928  138.4532  160.7239 C.3     1  UNL1        0.1057
     18 C         137.4478  139.7607  160.7013 C.3     1  UNL1        0.0021
     19 C         138.3068  138.6638  161.2572 C.3     1  UNL1        0.0245
     20 C         140.5622  144.2558  159.7575 C.3     1  UNL1        0.0952
     21 C         140.1805  145.6754  160.0558 C.3     1  UNL1        0.0388
     22 C         139.9255  146.1019  161.4712 C.3     1  UNL1        0.0740
     23 N         139.8657  145.0765  162.5643 N.3     1  UNL1       -0.2697
     24 C         141.1336  144.5209  163.1417 C.3     1  UNL1        0.0938
     25 C         141.0739  143.4955  164.2348 C.3     1  UNL1        0.1081
     26 N         139.7461  143.0257  164.7506 N.pl3   1  UNL1       -0.3049
     27 C         138.4780  143.5812  164.1732 C.3     1  UNL1        0.1081
     28 C         138.5378  144.6066  163.0801 C.3     1  UNL1        0.0938
     29 C         139.6863  142.0003  165.8437 C.ar    1  UNL1        0.0436
     30 C         140.3636  142.2626  167.1561 C.ar    1  UNL1        0.0142
     31 C         140.3038  141.2372  168.2492 C.ar    1  UNL1        0.0009
     32 C         139.5667  139.9493  168.0300 C.ar    1  UNL1       -0.0045
     33 C         138.8893  139.6870  166.7177 C.ar    1  UNL1       -0.0246
     34 C         138.1521  138.3991  166.4983 C.3     1  UNL1        0.0307
     35 C         138.9491  140.7124  165.6244 C.ar    1  UNL1       -0.0125
     36 C         138.2717  140.4500  164.3121 C.3     1  UNL1        0.0320
@<TRIPOS>BOND
     1    18    19    1
     2    19    17    1
     3    17     5    1
     4     5     6   ar
     5     6    11    1
     6    11    12   ar
     7    12    13   ar
     8    13    14   ar
     9    14    15   ar
    10    15    16   ar
    11     6     7   ar
    12     7     8   ar
    13     8     1    1
    14     1     2    2
    15     1     3   am
    16     3     4    1
    17     3    20    1
    18    20    21    1
    19    21    22    1
    20    22    23    1
    21    23    24    1
    22    24    25    1
    23    25    26    1
    24    26    29    1
    25    29    30   ar
    26    30    31   ar
    27    31    32   ar
    28    32    33   ar
    29    33    34    1
    30    33    35   ar
    31    35    36    1
    32    26    27    1
    33    27    28    1
    34     8     9   ar
    35     9    10    1
    36     9     5   ar
    37    16    11   ar
    38    28    23    1
    39    35    29   ar
@<TRIPOS>MOLECULE
*****
 36 39 0 0 0
SMALL
GASTEIGER

@<TRIPOS>ATOM
      1 C         142.6310  143.4959  158.4661 C.2     1  UNL1        0.2502
      2 O         142.8972  144.8369  157.8489 O.2     1  UNL1       -0.2699
      3 N         142.6811  142.2579  157.6206 N.am    1  UNL1       -0.2742
      4 C         142.9974  142.3610  156.1579 C.3     1  UNL1        0.1152
      5 N         142.5404  143.0465  162.3203 N.ar    1  UNL1       -0.3305
      6 C         141.1157  143.4220  162.0387 C.ar    1  UNL1        0.0598
      7 C         140.9763  143.6361  160.5607 C.ar    1  UNL1        0.0228
      8 C         142.3147  143.3928  159.9288 C.ar    1  UNL1        0.0666
      9 C         143.2815  143.0285  161.0163 C.ar    1  UNL1        0.0418
     10 C         144.7341  142.7032  160.8322 C.3     1  UNL1        0.0502
     11 C         140.0224  143.5594  163.0566 C.ar    1  UNL1        0.0158
     12 C         138.8882  142.5781  163.0760 C.ar    1  UNL1        0.0014
     13 C         137.7950  142.7155  164.0938 C.ar    1  UNL1        0.0000
     14 C         137.8360  143.8342  165.0922 C.ar    1  UNL1        0.0000
     15 C         138.9703  144.8155  165.0728 C.ar    1  UNL1        0.0000
     16 C         140.0635  144.6781  164.0550 C.ar    1  UNL1        0.0014
     17 C         143.1220  142.7424  163.6692 C.3     1  UNL1        0.1057
     18 C         144.6325  143.5188  165.6353 C.3     1  UNL1        0.0021
     19 C         143.7102  143.8453  164.4983 C.3     1  UNL1        0.0245
     20 C         142.4149  140.9169  158.2377 C.3     1  UNL1        0.0952
     21 C         143.5594  140.0564  158.6842 C.3     1  UNL1        0.0388
     22 C         143.3134  138.9023  159.6104 C.3     1  UNL1        0.0740
     23 N         142.6207  139.1275  160.9217 N.3     1  UNL1       -0.2697
     24 C         141.1868  139.5670  160.9467 C.3     1  UNL1        0.0938
     25 C         140.4941  139.7922  162.2580 C.3     1  UNL1        0.1081
     26 N         141.2353  139.5779  163.5442 N.pl3   1  UNL1       -0.3049
     27 C         142.6692  139.1384  163.5193 C.3     1  UNL1        0.1081
     28 C         143.3619  138.9132  162.2081 C.3     1  UNL1        0.0938
     29 C         140.5426  139.8031  164.8555 C.ar    1  UNL1        0.0436
     30 C         140.9760  140.9269  165.7495 C.ar    1  UNL1        0.0142
     31 C         140.2833  141.1521  167.0607 C.ar    1  UNL1        0.0009
     32 C         139.1571  140.2535  167.4781 C.ar    1  UNL1       -0.0045
     33 C         138.7236  139.1297  166.5842 C.ar    1  UNL1       -0.0246
     34 C         137.5974  138.2310  167.0014 C.3     1  UNL1        0.0307
     35 C         139.4164  138.9045  165.2728 C.ar    1  UNL1       -0.0125
     36 C         138.9829  137.7806  164.3789 C.3     1  UNL1        0.0320
@<TRIPOS>BOND
     1    18    19    1
     2    19    17    1
     3    17     5    1
     4     5     6   ar
     5     6    11    1
     6    11    12   ar
     7    12    13   ar
     8    13    14   ar
     9    14    15   ar
    10    15    16   ar
    11     6     7   ar
    12     7     8   ar
    13     8     1    1
    14     1     2    2
    15     1     3   am
    16     3     4    1
    17     3    20    1
    18    20    21    1
    19    21    22    1
    20    22    23    1
    21    23    24    1
    22    24    25    1
    23    25    26    1
    24    26    29    1
    25    29    30   ar
    26    30    31   ar
    27    31    32   ar
    28    32    33   ar
    29    33    34    1
    30    33    35   ar
    31    35    36    1
    32    26    27    1
    33    27    28    1
    34     8     9   ar
    35     9    10    1
    36     9     5   ar
    37    16    11   ar
    38    28    23    1
    39    35    29   ar
@<TRIPOS>MOLECULE
*****
 36 39 0 0 0
SMALL
GASTEIGER

@<TRIPOS>ATOM
      1 C         143.0884  142.1348  158.8900 C.2     1  UNL1        0.2502
      2 O         143.7263  143.2235  158.0790 O.2     1  UNL1       -0.2699
      3 N         142.8873  140.7739  158.2921 N.am    1  UNL1       -0.2742
      4 C         143.3242  140.5017  156.8831 C.3     1  UNL1        0.1152
      5 N         142.6811  142.7129  162.7065 N.ar    1  UNL1       -0.3305
      6 C         141.2776  142.9388  162.2277 C.ar    1  UNL1        0.0598
      7 C         141.2593  142.7497  160.7398 C.ar    1  UNL1        0.0228
      8 C         142.6515  142.4070  160.2989 C.ar    1  UNL1        0.0666
      9 C         143.5303  142.3842  161.5145 C.ar    1  UNL1        0.0418
     10 C         145.0000  142.0853  161.5344 C.3     1  UNL1        0.0502
     11 C         140.0992  143.2917  163.0861 C.ar    1  UNL1        0.0158
     12 C         138.8548  142.4560  163.0322 C.ar    1  UNL1        0.0014
     13 C         137.6765  142.8090  163.8906 C.ar    1  UNL1        0.0000
     14 C         137.7426  143.9977  164.8030 C.ar    1  UNL1        0.0000
     15 C         138.9870  144.8335  164.8570 C.ar    1  UNL1        0.0000
     16 C         140.1653  144.4805  163.9986 C.ar    1  UNL1        0.0014
     17 C         143.1526  142.8003  164.1277 C.3     1  UNL1        0.1057
     18 C         143.7764  145.2980  163.7779 C.3     1  UNL1        0.0021
     19 C         143.7773  144.0664  164.6342 C.3     1  UNL1        0.0245
     20 C         142.2495  139.6852  159.1031 C.3     1  UNL1        0.0952
     21 C         142.7648  138.2797  159.0087 C.3     1  UNL1        0.0388
     22 C         143.1138  137.5234  160.2563 C.3     1  UNL1        0.0740
     23 N         142.7286  138.0717  161.5983 N.3     1  UNL1       -0.2697
     24 C         143.7539  138.7603  162.4495 C.3     1  UNL1        0.0938
     25 C         143.3687  139.3086  163.7914 C.3     1  UNL1        0.1081
     26 N         141.9583  139.1684  164.2822 N.pl3   1  UNL1       -0.3049
     27 C         140.9330  138.4798  163.4311 C.3     1  UNL1        0.1081
     28 C         141.3181  137.9315  162.0891 C.3     1  UNL1        0.0938
     29 C         141.5732  139.7168  165.6242 C.ar    1  UNL1        0.0436
     30 C         140.4554  140.7108  165.7356 C.ar    1  UNL1        0.0142
     31 C         140.0703  141.2592  167.0776 C.ar    1  UNL1        0.0009
     32 C         140.8029  140.8135  168.3083 C.ar    1  UNL1       -0.0045
     33 C         141.9206  139.8195  168.1970 C.ar    1  UNL1       -0.0246
     34 C         142.6533  139.3737  169.4276 C.3     1  UNL1        0.0307
     35 C         142.3058  139.2711  166.8549 C.ar    1  UNL1       -0.0125
     36 C         143.4236  138.2770  166.7436 C.3     1  UNL1        0.0320
@<TRIPOS>BOND
     1    18    19    1
     2    19    17    1
     3    17     5    1
     4     5     6   ar
     5     6    11    1
     6    11    12   ar
     7    12    13   ar
     8    13    14   ar
     9    14    15   ar
    10    15    16   ar
    11     6     7   ar
    12     7     8   ar
    13     8     1    1
    14     1     2    2
    15     1     3   am
    16     3     4    1
    17     3    20    1
    18    20    21    1
    19    21    22    1
    20    22    23    1
    21    23    24    1
    22    24    25    1
    23    25    26    1
    24    26    29    1
    25    29    30   ar
    26    30    31   ar
    27    31    32   ar
    28    32    33   ar
    29    33    34    1
    30    33    35   ar
    31    35    36    1
    32    26    27    1
    33    27    28    1
    34     8     9   ar
    35     9    10    1
    36     9     5   ar
    37    16    11   ar
    38    28    23    1
    39    35    29   ar
@<TRIPOS>MOLECULE
*****
 36 39 0 0 0
SMALL
GASTEIGER

@<TRIPOS>ATOM
      1 C         140.2156  138.7632  158.5914 C.2     1  UNL1        0.2502
      2 O         139.1203  138.4422  157.6181 O.2     1  UNL1       -0.2699
      3 N         141.6468  138.5114  158.2196 N.am    1  UNL1       -0.2742
      4 C         141.9827  137.9387  156.8746 C.3     1  UNL1        0.1152
      5 N         139.4711  140.9095  161.7385 N.ar    1  UNL1       -0.3305
      6 C         139.2545  139.5252  162.2739 C.ar    1  UNL1        0.0598
      7 C         139.5070  138.5527  161.1602 C.ar    1  UNL1        0.0228
      8 C         139.8797  139.3360  159.9364 C.ar    1  UNL1        0.0666
      9 C         139.8575  140.7926  160.2939 C.ar    1  UNL1        0.0418
     10 C         140.1673  141.9322  159.3691 C.3     1  UNL1        0.0502
     11 C         138.8554  139.1748  163.6768 C.ar    1  UNL1        0.0158
     12 C         138.8515  137.7418  164.1198 C.ar    1  UNL1        0.0014
     13 C         138.4524  137.3915  165.5226 C.ar    1  UNL1        0.0000
     14 C         138.0572  138.4743  166.4825 C.ar    1  UNL1        0.0000
     15 C         138.0611  139.9074  166.0395 C.ar    1  UNL1        0.0000
     16 C         138.4602  140.2576  164.6367 C.ar    1  UNL1        0.0014
     17 C         139.3267  142.1866  162.5120 C.3     1  UNL1        0.1057
     18 C         137.6488  144.0311  163.2416 C.3     1  UNL1        0.0021
     19 C         138.2244  143.1466  162.1756 C.3     1  UNL1        0.0245
     20 C         142.7421  138.8324  159.1929 C.3     1  UNL1        0.0952
     21 C         143.0976  137.8528  160.2718 C.3     1  UNL1        0.0388
     22 C         144.1383  138.2062  161.2927 C.3     1  UNL1        0.0740
     23 N         143.7233  138.6466  162.6652 N.3     1  UNL1       -0.2697
     24 C         144.5009  139.7132  163.3777 C.3     1  UNL1        0.0938
     25 C         144.0860  140.1536  164.7502 C.3     1  UNL1        0.1081
     26 N         142.8935  139.5275  165.4102 N.pl3   1  UNL1       -0.3049
     27 C         142.1158  138.4609  164.6977 C.3     1  UNL1        0.1081
     28 C         142.5307  138.0205  163.3252 C.3     1  UNL1        0.0938
     29 C         142.4786  139.9680  166.7827 C.ar    1  UNL1        0.0436
     30 C         142.8293  139.1310  167.9771 C.ar    1  UNL1        0.0142
     31 C         142.4143  139.5714  169.3496 C.ar    1  UNL1        0.0009
     32 C         141.6486  140.8489  169.5278 C.ar    1  UNL1       -0.0045
     33 C         141.2979  141.6859  168.3336 C.ar    1  UNL1       -0.0246
     34 C         140.5322  142.9634  168.5117 C.3     1  UNL1        0.0307
     35 C         141.7129  141.2455  166.9610 C.ar    1  UNL1       -0.0125
     36 C         141.3621  142.0825  165.7667 C.3     1  UNL1        0.0320
@<TRIPOS>BOND
     1    18    19    1
     2    19    17    1
     3    17     5    1
     4     5     6   ar
     5     6    11    1
     6    11    12   ar
     7    12    13   ar
     8    13    14   ar
     9    14    15   ar
    10    15    16   ar
    11     6     7   ar
    12     7     8   ar
    13     8     1    1
    14     1     2    2
    15     1     3   am
    16     3     4    1
    17     3    20    1
    18    20    21    1
    19    21    22    1
    20    22    23    1
    21    23    24    1
    22    24    25    1
    23    25    26    1
    24    26    29    1
    25    29    30   ar
    26    30    31   ar
    27    31    32   ar
    28    32    33   ar
    29    33    34    1
    30    33    35   ar
    31    35    36    1
    32    26    27    1
    33    27    28    1
    34     8     9   ar
    35     9    10    1
    36     9     5   ar
    37    16    11   ar
    38    28    23    1
    39    35    29   ar
@<TRIPOS>MOLECULE
*****
 36 39 0 0 0
SMALL
GASTEIGER

@<TRIPOS>ATOM
      1 C         140.0723  142.4378  158.4974 C.2     1  UNL1        0.2502
      2 O         140.5349  142.8414  157.1288 O.2     1  UNL1       -0.2699
      3 N         138.7194  141.8159  158.6787 N.am    1  UNL1       -0.2742
      4 C         137.8291  141.5977  157.4913 C.3     1  UNL1        0.1152
      5 N         142.1175  143.7099  161.5412 N.ar    1  UNL1       -0.3305
      6 C         142.5476  142.2741  161.4826 C.ar    1  UNL1        0.0598
      7 C         141.8338  141.6228  160.3353 C.ar    1  UNL1        0.0228
      8 C         140.9626  142.6561  159.6848 C.ar    1  UNL1        0.0666
      9 C         141.1379  143.9460  160.4300 C.ar    1  UNL1        0.0418
     10 C         140.4538  145.2441  160.1188 C.3     1  UNL1        0.0502
     11 C         143.5207  141.6067  162.4089 C.ar    1  UNL1        0.0158
     12 C         143.1691  140.2964  163.0487 C.ar    1  UNL1        0.0014
     13 C         144.1422  139.6291  163.9749 C.ar    1  UNL1        0.0000
     14 C         145.4668  140.2721  164.2612 C.ar    1  UNL1        0.0000
     15 C         145.8183  141.5824  163.6213 C.ar    1  UNL1        0.0000
     16 C         144.8453  142.2497  162.6952 C.ar    1  UNL1        0.0014
     17 C         142.5849  144.7304  162.5361 C.3     1  UNL1        0.1057
     18 C         140.5071  144.4377  164.0680 C.3     1  UNL1        0.0021
     19 C         141.9528  144.7979  163.8947 C.3     1  UNL1        0.0245
     20 C         138.2568  141.4123  160.0473 C.3     1  UNL1        0.0952
     21 C         138.4956  140.0151  160.5379 C.3     1  UNL1        0.0388
     22 C         137.7755  139.5141  161.7547 C.3     1  UNL1        0.0740
     23 N         138.3396  139.7737  163.1201 N.3     1  UNL1       -0.2697
     24 C         138.0555  141.0725  163.8145 C.3     1  UNL1        0.0938
     25 C         138.6197  141.3321  165.1799 C.3     1  UNL1        0.1081
     26 N         139.4680  140.2929  165.8509 N.pl3   1  UNL1       -0.3049
     27 C         139.7522  138.9940  165.1565 C.3     1  UNL1        0.1081
     28 C         139.1880  138.7344  163.7911 C.3     1  UNL1        0.0938
     29 C         140.0321  140.5525  167.2163 C.ar    1  UNL1        0.0436
     30 C         139.3038  140.0656  168.4338 C.ar    1  UNL1        0.0142
     31 C         139.8680  140.3252  169.7992 C.ar    1  UNL1        0.0009
     32 C         141.1606  141.0718  169.9471 C.ar    1  UNL1       -0.0045
     33 C         141.8889  141.5587  168.7296 C.ar    1  UNL1       -0.0246
     34 C         143.1815  142.3053  168.8775 C.3     1  UNL1        0.0307
     35 C         141.3247  141.2991  167.3642 C.ar    1  UNL1       -0.0125
     36 C         142.0532  141.7861  166.1467 C.3     1  UNL1        0.0320
@<TRIPOS>BOND
     1    18    19    1
     2    19    17    1
     3    17     5    1
     4     5     6   ar
     5     6    11    1
     6    11    12   ar
     7    12    13   ar
     8    13    14   ar
     9    14    15   ar
    10    15    16   ar
    11     6     7   ar
    12     7     8   ar
    13     8     1    1
    14     1     2    2
    15     1     3   am
    16     3     4    1
    17     3    20    1
    18    20    21    1
    19    21    22    1
    20    22    23    1
    21    23    24    1
    22    24    25    1
    23    25    26    1
    24    26    29    1
    25    29    30   ar
    26    30    31   ar
    27    31    32   ar
    28    32    33   ar
    29    33    34    1
    30    33    35   ar
    31    35    36    1
    32    26    27    1
    33    27    28    1
    34     8     9   ar
    35     9    10    1
    36     9     5   ar
    37    16    11   ar
    38    28    23    1
    39    35    29   ar
