@<TRIPOS>MOLECULE
*****
 27 30 0 0 0
SMALL
GASTEIGER

@<TRIPOS>ATOM
      1 C         140.7617  142.0181  167.3225 C.3     1  UNL1        0.1686
      2 C         142.0908  141.3247  167.3737 C.3     1  UNL1        0.0595
      3 C         143.0347  141.5954  168.5076 C.3     1  UNL1        0.0611
      4 C         143.6266  142.1486  169.7700 C.3     1  UNL1        0.0175
      5 C         142.6368  143.1055  170.3655 C.3     1  UNL1        0.0175
      6 C         141.4332  143.1438  169.4711 C.3     1  UNL1        0.0611
      7 C         140.3765  142.9822  168.4052 C.3     1  UNL1        0.0595
      8 N         141.6792  142.2105  168.3229 N.3     1  UNL1       -0.2750
      9 O         139.8177  141.7474  166.1885 O.3     1  UNL1       -0.4791
     10 C         139.2860  138.2956  164.3039 C.ar    1  UNL1        0.0561
     11 C         138.4897  137.5359  165.3231 C.ar    1  UNL1        0.0047
     12 C         138.1361  138.1801  166.6308 C.ar    1  UNL1        0.0033
     13 C         138.5787  139.5839  166.9192 C.ar    1  UNL1        0.0369
     14 C         139.3750  140.3436  165.9000 C.ar    1  UNL1        0.1385
     15 C         139.7287  139.6995  164.5924 C.ar    1  UNL1        0.0414
     16 N         138.6630  137.6793  161.8581 N.am    1  UNL1       -0.3253
     17 C         139.6396  137.6514  162.9963 C.2     1  UNL1        0.2428
     18 O         140.9700  136.9794  162.8267 O.2     1  UNL1       -0.2704
     19 H         138.8951  137.2564  160.9999 H       1  UNL1        0.1453
     20 H         137.7899  138.1203  161.9694 H       1  UNL1        0.1453
     21 C         140.7353  141.9398  167.1890 C.3     1  UNL1        0.0720
     22 C         140.5850  142.9416  166.0827 C.3     1  UNL1        0.0160
     23 C         139.3305  143.7568  165.9744 C.3     1  UNL1        0.0014
     24 C         139.1802  144.7585  164.8682 C.3     1  UNL1        0.0000
     25 C         140.2844  144.9453  163.8703 C.3     1  UNL1        0.0000
     26 C         141.5390  144.1301  163.9786 C.3     1  UNL1        0.0000
     27 C         141.6892  143.1283  165.0849 C.3     1  UNL1        0.0014
@<TRIPOS>BOND
     1    16    17   am
     2    17    18    2
     3    17    10    1
     4    10    11   ar
     5    11    12   ar
     6    12    13   ar
     7    13    14   ar
     8    14     9    1
     9     1     9    1
    10     1     2    1
    11     3     2    1
    12     3     4    1
    13     4     5    1
    14     6     5    1
    15     6     7    1
    16     6     8    1
    17     8    21    1
    18    21    22    1
    19    22    23    1
    20    23    24    1
    21    24    25    1
    22    25    26    1
    23    26    27    1
    24    14    15   ar
    25    15    10   ar
    26     7     1    1
    27    27    22    1
    28     8     3    1
    29    16    19    1
    30    16    20    1
@<TRIPOS>MOLECULE
*****
 27 30 0 0 0
SMALL
GASTEIGER

@<TRIPOS>ATOM
      1 C         141.5779  142.3360  165.8553 C.3     1  UNL1        0.1686
      2 C         140.4737  143.1956  165.3152 C.3     1  UNL1        0.0595
      3 C         140.7894  144.3136  164.3663 C.3     1  UNL1        0.0611
      4 C         141.5399  145.2697  163.4874 C.3     1  UNL1        0.0175
      5 C         142.9972  144.9226  163.5633 C.3     1  UNL1        0.0175
      6 C         143.1474  143.7520  164.4891 C.3     1  UNL1        0.0611
      7 C         142.9978  142.5944  165.4466 C.3     1  UNL1        0.0595
      8 N         141.7828  143.3756  164.9855 N.3     1  UNL1       -0.2750
      9 O         141.2622  141.2179  166.8042 O.3     1  UNL1       -0.4791
     10 C         139.5240  138.3378  164.6986 C.ar    1  UNL1        0.0561
     11 C         138.3722  137.9880  165.5937 C.ar    1  UNL1        0.0047
     12 C         138.1838  138.7148  166.8922 C.ar    1  UNL1        0.0033
     13 C         139.1471  139.7914  167.2957 C.ar    1  UNL1        0.0369
     14 C         140.2988  140.1412  166.4007 C.ar    1  UNL1        0.1385
     15 C         140.4873  139.4145  165.1022 C.ar    1  UNL1        0.0414
     16 N         138.6019  137.5759  162.3922 N.am    1  UNL1       -0.3253
     17 C         139.7124  137.6110  163.4001 C.2     1  UNL1        0.2428
     18 O         141.0112  136.9192  163.1094 O.2     1  UNL1       -0.2704
     19 H         138.7256  137.0989  161.5400 H       1  UNL1        0.1453
     20 H         137.7495  138.0299  162.5830 H       1  UNL1        0.1453
     21 C         141.4671  142.2576  165.9343 C.3     1  UNL1        0.0720
     22 C         141.7137  142.4289  167.4039 C.3     1  UNL1        0.0160
     23 C         140.6593  143.0454  168.2746 C.3     1  UNL1        0.0014
     24 C         140.9059  143.2167  169.7441 C.3     1  UNL1        0.0000
     25 C         142.2070  142.7715  170.3431 C.3     1  UNL1        0.0000
     26 C         143.2616  142.1550  169.4725 C.3     1  UNL1        0.0000
     27 C         143.0148  141.9837  168.0029 C.3     1  UNL1        0.0014
@<TRIPOS>BOND
     1    16    17   am
     2    17    18    2
     3    17    10    1
     4    10    11   ar
     5    11    12   ar
     6    12    13   ar
     7    13    14   ar
     8    14     9    1
     9     1     9    1
    10     1     2    1
    11     3     2    1
    12     3     4    1
    13     4     5    1
    14     6     5    1
    15     6     7    1
    16     6     8    1
    17     8    21    1
    18    21    22    1
    19    22    23    1
    20    23    24    1
    21    24    25    1
    22    25    26    1
    23    26    27    1
    24    14    15   ar
    25    15    10   ar
    26     7     1    1
    27    27    22    1
    28     8     3    1
    29    16    19    1
    30    16    20    1
@<TRIPOS>MOLECULE
*****
 27 30 0 0 0
SMALL
GASTEIGER

@<TRIPOS>ATOM
      1 C         142.0553  141.9118  164.9692 C.3     1  UNL1        0.1686
      2 C         142.4542  140.5522  164.4769 C.3     1  UNL1        0.0595
      3 C         143.8526  140.3111  163.9908 C.3     1  UNL1        0.0611
      4 C         145.2898  140.5238  163.6174 C.3     1  UNL1        0.0175
      5 C         145.6365  141.9545  163.9052 C.3     1  UNL1        0.0175
      6 C         144.4137  142.6260  164.4565 C.3     1  UNL1        0.0611
      7 C         143.0549  143.0303  164.9754 C.3     1  UNL1        0.0595
      8 N         143.3112  141.6103  164.5093 N.3     1  UNL1       -0.2750
      9 O         140.6569  142.1530  165.4553 O.3     1  UNL1       -0.4791
     10 C         140.0040  142.0751  169.3690 C.ar    1  UNL1        0.0561
     11 C         139.4106  140.7069  169.5302 C.ar    1  UNL1        0.0047
     12 C         139.2327  139.8208  168.3331 C.ar    1  UNL1        0.0033
     13 C         139.6481  140.3028  166.9749 C.ar    1  UNL1        0.0369
     14 C         140.2414  141.6710  166.8136 C.ar    1  UNL1        0.1385
     15 C         140.4194  142.5571  168.0107 C.ar    1  UNL1        0.0414
     16 N         140.1333  144.4522  170.4095 N.am    1  UNL1       -0.3253
     17 C         140.1819  142.9612  170.5661 C.2     1  UNL1        0.2428
     18 O         140.4084  142.3563  171.9200 O.2     1  UNL1       -0.2704
     19 H         140.2501  145.0338  171.1952 H       1  UNL1        0.1453
     20 H         139.9846  144.8492  169.5209 H       1  UNL1        0.1453
     21 C         141.9128  141.8514  164.9954 C.3     1  UNL1        0.0720
     22 C         140.9601  142.6617  164.1672 C.3     1  UNL1        0.0160
     23 C         140.1827  142.0080  163.0635 C.3     1  UNL1        0.0014
     24 C         139.2300  142.8182  162.2354 C.3     1  UNL1        0.0000
     25 C         139.0548  144.2822  162.5109 C.3     1  UNL1        0.0000
     26 C         139.8323  144.9360  163.6147 C.3     1  UNL1        0.0000
     27 C         140.7849  144.1257  164.4428 C.3     1  UNL1        0.0014
@<TRIPOS>BOND
     1    16    17   am
     2    17    18    2
     3    17    10    1
     4    10    11   ar
     5    11    12   ar
     6    12    13   ar
     7    13    14   ar
     8    14     9    1
     9     1     9    1
    10     1     2    1
    11     3     2    1
    12     3     4    1
    13     4     5    1
    14     6     5    1
    15     6     7    1
    16     6     8    1
    17     8    21    1
    18    21    22    1
    19    22    23    1
    20    23    24    1
    21    24    25    1
    22    25    26    1
    23    26    27    1
    24    14    15   ar
    25    15    10   ar
    26     7     1    1
    27    27    22    1
    28     8     3    1
    29    16    19    1
    30    16    20    1
@<TRIPOS>MOLECULE
*****
 27 30 0 0 0
SMALL
GASTEIGER

@<TRIPOS>ATOM
      1 C         140.4641  141.6562  166.6223 C.3     1  UNL1        0.1686
      2 C         139.8705  140.3459  167.0475 C.3     1  UNL1        0.0595
      3 C         139.4799  140.1290  168.4794 C.3     1  UNL1        0.0611
      4 C         139.2506  140.3514  169.9450 C.3     1  UNL1        0.0175
      5 C         139.7105  141.7391  170.2807 C.3     1  UNL1        0.0175
      6 C         140.2241  142.3743  169.0226 C.3     1  UNL1        0.0611
      7 C         140.6671  142.7495  167.6290 C.3     1  UNL1        0.0595
      8 N         140.0816  141.3792  167.9094 N.3     1  UNL1       -0.2750
      9 O         140.8547  141.8731  165.1903 O.3     1  UNL1       -0.4791
     10 C         143.1860  139.3311  163.2276 C.ar    1  UNL1        0.0561
     11 C         144.5420  139.8917  163.5390 C.ar    1  UNL1        0.0047
     12 C         144.6689  141.1128  164.4008 C.ar    1  UNL1        0.0033
     13 C         143.4398  141.7732  164.9513 C.ar    1  UNL1        0.0369
     14 C         142.0838  141.2126  164.6399 C.ar    1  UNL1        0.1385
     15 C         141.9569  139.9916  163.7781 C.ar    1  UNL1        0.0414
     16 N         141.8279  137.2573  162.4497 N.am    1  UNL1       -0.3253
     17 C         143.0592  138.1099  162.3658 C.2     1  UNL1        0.2428
     18 O         144.1636  137.7414  161.4200 O.2     1  UNL1       -0.2704
     19 H         141.7446  136.4559  161.8840 H       1  UNL1        0.1453
     20 H         141.1030  137.4992  163.0704 H       1  UNL1        0.1453
     21 C         140.4722  141.5961  166.4774 C.3     1  UNL1        0.0720
     22 C         139.5994  142.4210  165.5787 C.3     1  UNL1        0.0160
     23 C         139.8468  143.8938  165.4385 C.3     1  UNL1        0.0014
     24 C         138.9741  144.7187  164.5398 C.3     1  UNL1        0.0000
     25 C         137.8539  144.0709  163.7812 C.3     1  UNL1        0.0000
     26 C         137.6065  142.5980  163.9214 C.3     1  UNL1        0.0000
     27 C         138.4793  141.7732  164.8202 C.3     1  UNL1        0.0014
@<TRIPOS>BOND
     1    16    17   am
     2    17    18    2
     3    17    10    1
     4    10    11   ar
     5    11    12   ar
     6    12    13   ar
     7    13    14   ar
     8    14     9    1
     9     1     9    1
    10     1     2    1
    11     3     2    1
    12     3     4    1
    13     4     5    1
    14     6     5    1
    15     6     7    1
    16     6     8    1
    17     8    21    1
    18    21    22    1
    19    22    23    1
    20    23    24    1
    21    24    25    1
    22    25    26    1
    23    26    27    1
    24    14    15   ar
    25    15    10   ar
    26     7     1    1
    27    27    22    1
    28     8     3    1
    29    16    19    1
    30    16    20    1
@<TRIPOS>MOLECULE
*****
 27 30 0 0 0
SMALL
GASTEIGER

@<TRIPOS>ATOM
      1 C         140.2367  141.8237  165.9509 C.3     1  UNL1        0.1686
      2 C         139.3418  140.9241  165.1510 C.3     1  UNL1        0.0595
      3 C         138.2678  141.5123  164.2847 C.3     1  UNL1        0.0611
      4 C         137.3739  142.4976  163.5917 C.3     1  UNL1        0.0175
      5 C         137.7871  143.8759  164.0153 C.3     1  UNL1        0.0175
      6 C         138.9363  143.7425  164.9701 C.3     1  UNL1        0.0611
      7 C         140.0575  143.3115  165.8846 C.3     1  UNL1        0.0595
      8 N         139.2334  142.2817  165.1366 N.3     1  UNL1       -0.2750
      9 O         141.3108  141.2356  166.8172 O.3     1  UNL1       -0.4791
     10 C         144.3331  140.3036  164.4200 C.ar    1  UNL1        0.0561
     11 C         144.7085  138.9514  164.9495 C.ar    1  UNL1        0.0047
     12 C         143.9512  138.3605  166.1017 C.ar    1  UNL1        0.0033
     13 C         142.8187  139.1219  166.7242 C.ar    1  UNL1        0.0369
     14 C         142.4434  140.4742  166.1946 C.ar    1  UNL1        0.1385
     15 C         143.2006  141.0651  165.0426 C.ar    1  UNL1        0.0414
     16 N         146.2224  141.8450  163.5229 N.am    1  UNL1       -0.3253
     17 C         145.0904  140.8945  163.2678 C.2     1  UNL1        0.2428
     18 O         144.7156  140.5348  161.8606 O.2     1  UNL1       -0.2704
     19 H         146.7194  142.2328  162.7666 H       1  UNL1        0.1453
     20 H         146.4684  142.0811  164.4464 H       1  UNL1        0.1453
     21 C         140.3074  141.6935  166.0028 C.3     1  UNL1        0.0720
     22 C         140.1612  141.7122  167.4956 C.3     1  UNL1        0.0160
     23 C         140.6430  142.8954  168.2816 C.3     1  UNL1        0.0014
     24 C         140.4968  142.9141  169.7743 C.3     1  UNL1        0.0000
     25 C         139.8688  141.7496  170.4810 C.3     1  UNL1        0.0000
     26 C         139.3869  140.5663  169.6950 C.3     1  UNL1        0.0000
     27 C         139.5332  140.5477  168.2022 C.3     1  UNL1        0.0014
@<TRIPOS>BOND
     1    16    17   am
     2    17    18    2
     3    17    10    1
     4    10    11   ar
     5    11    12   ar
     6    12    13   ar
     7    13    14   ar
     8    14     9    1
     9     1     9    1
    10     1     2    1
    11     3     2    1
    12     3     4    1
    13     4     5    1
    14     6     5    1
    15     6     7    1
    16     6     8    1
    17     8    21    1
    18    21    22    1
    19    22    23    1
    20    23    24    1
    21    24    25    1
    22    25    26    1
    23    26    27    1
    24    14    15   ar
    25    15    10   ar
    26     7     1    1
    27    27    22    1
    28     8     3    1
    29    16    19    1
    30    16    20    1
@<TRIPOS>MOLECULE
*****
 27 30 0 0 0
SMALL
GASTEIGER

@<TRIPOS>ATOM
      1 C         140.0078  140.8060  165.1373 C.3     1  UNL1        0.1686
      2 C         138.9676  139.8007  165.5337 C.3     1  UNL1        0.0595
      3 C         138.7466  138.5786  164.6925 C.3     1  UNL1        0.0611
      4 C         138.8682  137.5569  163.6010 C.3     1  UNL1        0.0175
      5 C         139.9419  138.0122  162.6576 C.3     1  UNL1        0.0175
      6 C         140.4838  139.3152  163.1660 C.3     1  UNL1        0.0611
      7 C         140.8271  140.5892  163.8996 C.3     1  UNL1        0.0595
      8 N         139.7451  139.6653  164.4237 N.3     1  UNL1       -0.2750
      9 O         140.2288  142.0282  165.9785 O.3     1  UNL1       -0.4791
     10 C         141.2121  141.4633  169.7816 C.ar    1  UNL1        0.0561
     11 C         142.6825  141.7565  169.7408 C.ar    1  UNL1        0.0047
     12 C         143.3351  142.1403  168.4458 C.ar    1  UNL1        0.0033
     13 C         142.5172  142.2309  167.1918 C.ar    1  UNL1        0.0369
     14 C         141.0467  141.9376  167.2326 C.ar    1  UNL1        0.1385
     15 C         140.3941  141.5538  168.5275 C.ar    1  UNL1        0.0414
     16 N         140.0425  139.6849  171.2714 N.am    1  UNL1       -0.3253
     17 C         140.5595  141.0795  171.0765 C.2     1  UNL1        0.2428
     18 O         140.4240  142.0902  172.1766 O.2     1  UNL1       -0.2704
     19 H         139.6142  139.4330  172.1214 H       1  UNL1        0.1453
     20 H         140.1314  139.0215  170.5495 H       1  UNL1        0.1453
     21 C         139.9660  140.8874  165.2649 C.3     1  UNL1        0.0720
     22 C         139.6021  142.2411  164.7311 C.3     1  UNL1        0.0160
     23 C         138.1636  142.6620  164.6715 C.3     1  UNL1        0.0014
     24 C         137.7998  144.0157  164.1377 C.3     1  UNL1        0.0000
     25 C         138.8744  144.9486  163.6636 C.3     1  UNL1        0.0000
     26 C         140.3130  144.5278  163.7232 C.3     1  UNL1        0.0000
     27 C         140.6767  143.1740  164.2570 C.3     1  UNL1        0.0014
@<TRIPOS>BOND
     1    16    17   am
     2    17    18    2
     3    17    10    1
     4    10    11   ar
     5    11    12   ar
     6    12    13   ar
     7    13    14   ar
     8    14     9    1
     9     1     9    1
    10     1     2    1
    11     3     2    1
    12     3     4    1
    13     4     5    1
    14     6     5    1
    15     6     7    1
    16     6     8    1
    17     8    21    1
    18    21    22    1
    19    22    23    1
    20    23    24    1
    21    24    25    1
    22    25    26    1
    23    26    27    1
    24    14    15   ar
    25    15    10   ar
    26     7     1    1
    27    27    22    1
    28     8     3    1
    29    16    19    1
    30    16    20    1
@<TRIPOS>MOLECULE
*****
 27 30 0 0 0
SMALL
GASTEIGER

@<TRIPOS>ATOM
      1 C         140.9536  140.8617  167.4513 C.3     1  UNL1        0.1686
      2 C         140.3519  141.5801  168.6226 C.3     1  UNL1        0.0595
      3 C         140.9208  141.3826  169.9964 C.3     1  UNL1        0.0611
      4 C         141.7780  140.9032  171.1301 C.3     1  UNL1        0.0175
      5 C         142.8012  139.9597  170.5708 C.3     1  UNL1        0.0175
      6 C         142.5763  139.8560  169.0914 C.3     1  UNL1        0.0611
      7 C         142.1241  139.9459  167.6538 C.3     1  UNL1        0.0595
      8 N         141.4142  140.7354  168.7364 N.3     1  UNL1       -0.2750
      9 O         140.3847  141.0592  166.0774 O.3     1  UNL1       -0.4791
     10 C         142.2125  143.8514  163.9297 C.ar    1  UNL1        0.0561
     11 C         141.1426  144.9004  163.8592 C.ar    1  UNL1        0.0047
     12 C         139.8201  144.6689  164.5280 C.ar    1  UNL1        0.0033
     13 C         139.5675  143.3886  165.2674 C.ar    1  UNL1        0.0369
     14 C         140.6373  142.3396  165.3380 C.ar    1  UNL1        0.1385
     15 C         141.9598  142.5710  164.6692 C.ar    1  UNL1        0.0414
     16 N         143.8803  145.4436  162.7326 N.am    1  UNL1       -0.3253
     17 C         143.5350  144.0828  163.2608 C.2     1  UNL1        0.2428
     18 O         144.5122  142.9534  163.1202 O.2     1  UNL1       -0.2704
     19 H         144.7484  145.5955  162.2936 H       1  UNL1        0.1453
     20 H         143.2390  146.1848  162.8249 H       1  UNL1        0.1453
     21 C         140.8453  140.9329  167.3626 C.3     1  UNL1        0.0720
     22 C         140.1308  139.8058  166.6775 C.3     1  UNL1        0.0160
     23 C         138.7342  139.4436  167.0877 C.3     1  UNL1        0.0014
     24 C         138.0198  138.3166  166.4027 C.3     1  UNL1        0.0000
     25 C         138.7019  137.5518  165.3073 C.3     1  UNL1        0.0000
     26 C         140.0986  137.9140  164.8970 C.3     1  UNL1        0.0000
     27 C         140.8129  139.0411  165.5822 C.3     1  UNL1        0.0014
@<TRIPOS>BOND
     1    16    17   am
     2    17    18    2
     3    17    10    1
     4    10    11   ar
     5    11    12   ar
     6    12    13   ar
     7    13    14   ar
     8    14     9    1
     9     1     9    1
    10     1     2    1
    11     3     2    1
    12     3     4    1
    13     4     5    1
    14     6     5    1
    15     6     7    1
    16     6     8    1
    17     8    21    1
    18    21    22    1
    19    22    23    1
    20    23    24    1
    21    24    25    1
    22    25    26    1
    23    26    27    1
    24    14    15   ar
    25    15    10   ar
    26     7     1    1
    27    27    22    1
    28     8     3    1
    29    16    19    1
    30    16    20    1
@<TRIPOS>MOLECULE
*****
 27 30 0 0 0
SMALL
GASTEIGER

@<TRIPOS>ATOM
      1 C         140.2082  140.9367  164.6527 C.3     1  UNL1        0.1686
      2 C         141.2506  140.2430  163.8267 C.3     1  UNL1        0.0595
      3 C         140.9686  138.8891  163.2460 C.3     1  UNL1        0.0611
      4 C         140.2782  137.6073  162.8849 C.3     1  UNL1        0.0175
      5 C         138.9118  137.6266  163.5034 C.3     1  UNL1        0.0175
      6 C         138.7577  138.9203  164.2468 C.3     1  UNL1        0.0611
      7 C         138.8839  140.2765  164.8980 C.3     1  UNL1        0.0595
      8 N         140.0289  139.7006  164.0877 N.3     1  UNL1       -0.2750
      9 O         140.4902  142.2908  165.2334 O.3     1  UNL1       -0.4791
     10 C         141.0730  143.0004  169.0943 C.ar    1  UNL1        0.0561
     11 C         142.5237  142.6449  169.2320 C.ar    1  UNL1        0.0047
     12 C         143.2966  142.1714  168.0369 C.ar    1  UNL1        0.0033
     13 C         142.6188  142.0533  166.7041 C.ar    1  UNL1        0.0369
     14 C         141.1680  142.4088  166.5663 C.ar    1  UNL1        0.1385
     15 C         140.3951  142.8823  167.7614 C.ar    1  UNL1        0.0414
     16 N         139.8342  144.8977  170.3654 N.am    1  UNL1       -0.3253
     17 C         140.3001  143.4739  170.2895 C.2     1  UNL1        0.2428
     18 O         139.9932  142.5236  171.4088 O.2     1  UNL1       -0.2704
     19 H         139.3270  145.2084  171.1499 H       1  UNL1        0.1453
     20 H         140.0357  145.5214  169.6308 H       1  UNL1        0.1453
     21 C         140.3109  141.0545  164.6684 C.3     1  UNL1        0.0720
     22 C         139.6644  142.2729  164.0788 C.3     1  UNL1        0.0160
     23 C         140.3445  143.0208  162.9706 C.3     1  UNL1        0.0014
     24 C         139.6981  144.2391  162.3810 C.3     1  UNL1        0.0000
     25 C         138.3716  144.7097  162.8996 C.3     1  UNL1        0.0000
     26 C         137.6915  143.9618  164.0079 C.3     1  UNL1        0.0000
     27 C         138.3380  142.7434  164.5975 C.3     1  UNL1        0.0014
@<TRIPOS>BOND
     1    16    17   am
     2    17    18    2
     3    17    10    1
     4    10    11   ar
     5    11    12   ar
     6    12    13   ar
     7    13    14   ar
     8    14     9    1
     9     1     9    1
    10     1     2    1
    11     3     2    1
    12     3     4    1
    13     4     5    1
    14     6     5    1
    15     6     7    1
    16     6     8    1
    17     8    21    1
    18    21    22    1
    19    22    23    1
    20    23    24    1
    21    24    25    1
    22    25    26    1
    23    26    27    1
    24    14    15   ar
    25    15    10   ar
    26     7     1    1
    27    27    22    1
    28     8     3    1
    29    16    19    1
    30    16    20    1
@<TRIPOS>MOLECULE
*****
 27 30 0 0 0
SMALL
GASTEIGER

@<TRIPOS>ATOM
      1 C         142.4014  141.5556  165.8533 C.3     1  UNL1        0.1686
      2 C         143.3486  142.5973  165.3357 C.3     1  UNL1        0.0595
      3 C         144.5760  142.1849  164.5785 C.3     1  UNL1        0.0611
      4 C         145.6244  141.3476  163.9079 C.3     1  UNL1        0.0175
      5 C         145.2394  139.9067  164.0684 C.3     1  UNL1        0.0175
      6 C         143.9530  139.8536  164.8381 C.3     1  UNL1        0.0611
      7 C         142.6817  140.1016  165.6136 C.3     1  UNL1        0.0595
      8 N         143.5430  141.2616  165.1534 N.3     1  UNL1       -0.2750
      9 O         141.1739  141.9679  166.6105 O.3     1  UNL1       -0.4791
     10 C         138.3021  142.8630  164.0219 C.ar    1  UNL1        0.0561
     11 C         137.8876  144.2175  164.5154 C.ar    1  UNL1        0.0047
     12 C         138.5687  144.8221  165.7073 C.ar    1  UNL1        0.0033
     13 C         139.6640  144.0723  166.4057 C.ar    1  UNL1        0.0369
     14 C         140.0785  142.7178  165.9121 C.ar    1  UNL1        0.1385
     15 C         139.3975  142.1132  164.7203 C.ar    1  UNL1        0.0414
     16 N         136.9267  140.9346  162.9543 N.am    1  UNL1       -0.3253
     17 C         137.6210  142.2584  162.8300 C.2     1  UNL1        0.2428
     18 O         137.6343  142.9777  161.5137 O.2     1  UNL1       -0.2704
     19 H         136.4798  140.5378  162.1720 H       1  UNL1        0.1453
     20 H         136.9180  140.4625  163.8182 H       1  UNL1        0.1453
     21 C         142.3156  141.6740  165.9106 C.3     1  UNL1        0.0720
     22 C         142.2217  141.4152  167.3851 C.3     1  UNL1        0.0160
     23 C         141.3676  140.2933  167.8968 C.3     1  UNL1        0.0014
     24 C         141.2737  140.0345  169.3713 C.3     1  UNL1        0.0000
     25 C         142.0339  140.8976  170.3341 C.3     1  UNL1        0.0000
     26 C         142.8881  142.0195  169.8225 C.3     1  UNL1        0.0000
     27 C         142.9820  142.2783  168.3479 C.3     1  UNL1        0.0014
@<TRIPOS>BOND
     1    16    17   am
     2    17    18    2
     3    17    10    1
     4    10    11   ar
     5    11    12   ar
     6    12    13   ar
     7    13    14   ar
     8    14     9    1
     9     1     9    1
    10     1     2    1
    11     3     2    1
    12     3     4    1
    13     4     5    1
    14     6     5    1
    15     6     7    1
    16     6     8    1
    17     8    21    1
    18    21    22    1
    19    22    23    1
    20    23    24    1
    21    24    25    1
    22    25    26    1
    23    26    27    1
    24    14    15   ar
    25    15    10   ar
    26     7     1    1
    27    27    22    1
    28     8     3    1
    29    16    19    1
    30    16    20    1
