@<TRIPOS>MOLECULE
*****
 29 33 0 0 0
SMALL
GASTEIGER

@<TRIPOS>ATOM
      1 N         137.3899  142.2747  164.3740 N.pl3   1  UNL1       -0.3133
      2 C         138.5578  142.8060  163.5968 C.2     1  UNL1        0.2770
      3 N         139.9792  142.8658  164.0721 N.2     1  UNL1       -0.2204
      4 C         140.8091  143.4675  162.9769 C.3     1  UNL1        0.1537
      5 C         139.9006  143.7794  161.8249 C.3     1  UNL1        0.2350
      6 O         138.5092  143.3706  162.2080 O.2     1  UNL1       -0.4478
      7 C         141.5906  143.1017  164.2040 C.ar    1  UNL1        0.0355
      8 C         140.8933  142.4896  165.3825 C.ar    1  UNL1        0.0007
      9 C         141.6748  142.1238  166.6095 C.ar    1  UNL1        0.0015
     10 C         143.1537  142.3702  166.6579 C.ar    1  UNL1        0.0031
     11 C         143.8510  142.9824  165.4793 C.ar    1  UNL1        0.0366
     12 C         143.0695  143.3482  164.2524 C.ar    1  UNL1        0.1364
     13 O         143.7668  143.9604  163.0738 O.3     1  UNL1       -0.4756
     14 C         142.9853  144.3261  161.8468 C.3     1  UNL1        0.2074
     15 C         141.5065  144.0797  161.7984 C.3     1  UNL1        0.0666
     16 C         140.2015  144.1486  161.0621 C.3     1  UNL1        0.0061
     17 C         141.4578  144.6443  160.4096 C.3     1  UNL1        0.0061
     18 H         137.5231  141.9231  165.2839 H       1  UNL1        0.1466
     19 H         136.4903  142.2777  163.9742 H       1  UNL1        0.1466
     20 C         140.9775  141.5116  167.7880 C.ar    1  UNL1        0.0222
     21 C         141.4452  141.8199  169.1795 C.ar    1  UNL1        0.0991
     22 N         140.7479  141.2077  170.3580 N.ar    1  UNL1       -0.2391
     23 C         139.5828  140.2872  170.1451 C.ar    1  UNL1        0.1358
     24 C         139.1151  139.9789  168.7536 C.ar    1  UNL1        0.1634
     25 C         139.8125  140.5911  167.5750 C.ar    1  UNL1        0.0403
     26 O         137.9501  139.0584  168.5406 O.3     1  UNL1       -0.4220
     27 C         137.6639  138.5152  167.1721 C.3     1  UNL1        0.5087
     28 F         137.5625  139.4474  166.0012 F       1  UNL1       -0.1550
     29 F         137.4790  137.0398  166.9743 F       1  UNL1       -0.1550
@<TRIPOS>BOND
     1     1     2    1
     2     2     3    2
     3     3     4    1
     4     4     5    1
     5     5     6    1
     6     4     7    1
     7     7     8   ar
     8     8     9   ar
     9     9    20    1
    10    20    21   ar
    11    21    22   ar
    12    22    23   ar
    13    23    24   ar
    14    24    26    1
    15    26    27    1
    16    27    28    1
    17    27    29    1
    18    24    25   ar
    19     9    10   ar
    20    10    11   ar
    21    11    12   ar
    22    12    13    1
    23    13    14    1
    24    14    15    1
    25    15    16    1
    26    16    17    1
    27     6     2    1
    28    12     7   ar
    29    17    15    1
    30    15     4    1
    31    25    20   ar
    32     1    18    1
    33     1    19    1
@<TRIPOS>MOLECULE
*****
 29 33 0 0 0
SMALL
GASTEIGER

@<TRIPOS>ATOM
      1 N         138.3550  144.0574  164.4723 N.pl3   1  UNL1       -0.3133
      2 C         138.3909  143.1687  163.2644 C.2     1  UNL1        0.2770
      3 N         138.6045  141.6840  163.2683 N.2     1  UNL1       -0.2204
      4 C         138.5652  141.2064  161.8468 C.3     1  UNL1        0.1537
      5 C         138.3272  142.3960  160.9646 C.3     1  UNL1        0.2350
      6 O         138.2195  143.6087  161.8407 O.2     1  UNL1       -0.4478
      7 C         138.7981  140.1163  162.8506 C.ar    1  UNL1        0.0355
      8 C         138.8620  140.4443  164.3128 C.ar    1  UNL1        0.0007
      9 C         139.0949  139.3542  165.3166 C.ar    1  UNL1        0.0015
     10 C         139.2639  137.9360  164.8580 C.ar    1  UNL1        0.0031
     11 C         139.1999  137.6080  163.3956 C.ar    1  UNL1        0.0366
     12 C         138.9670  138.6982  162.3920 C.ar    1  UNL1        0.1364
     13 O         138.9030  138.3702  160.9296 O.3     1  UNL1       -0.4756
     14 C         138.6701  139.4603  159.9260 C.3     1  UNL1        0.2074
     15 C         138.5012  140.8784  160.3846 C.3     1  UNL1        0.0666
     16 C         138.2692  142.3265  160.0699 C.3     1  UNL1        0.0061
     17 C         138.3298  141.3184  158.9608 C.3     1  UNL1        0.0061
     18 H         138.4784  143.6729  165.3702 H       1  UNL1        0.1466
     19 H         138.2079  145.0252  164.3672 H       1  UNL1        0.1466
     20 C         139.1589  139.6822  166.7788 C.ar    1  UNL1        0.0222
     21 C         138.0882  139.1880  167.7059 C.ar    1  UNL1        0.0991
     22 N         138.1522  139.5161  169.1682 N.ar    1  UNL1       -0.2391
     23 C         139.2869  140.3383  169.7034 C.ar    1  UNL1        0.1358
     24 C         140.3576  140.8325  168.7764 C.ar    1  UNL1        0.1634
     25 C         140.2936  140.5044  167.3141 C.ar    1  UNL1        0.0403
     26 O         141.4922  141.6547  169.3116 O.3     1  UNL1       -0.4220
     27 C         141.2933  143.1148  169.5920 C.3     1  UNL1        0.5087
     28 F         140.0787  143.8208  169.0664 F       1  UNL1       -0.1550
     29 F         142.3091  143.8689  170.3980 F       1  UNL1       -0.1550
@<TRIPOS>BOND
     1     1     2    1
     2     2     3    2
     3     3     4    1
     4     4     5    1
     5     5     6    1
     6     4     7    1
     7     7     8   ar
     8     8     9   ar
     9     9    20    1
    10    20    21   ar
    11    21    22   ar
    12    22    23   ar
    13    23    24   ar
    14    24    26    1
    15    26    27    1
    16    27    28    1
    17    27    29    1
    18    24    25   ar
    19     9    10   ar
    20    10    11   ar
    21    11    12   ar
    22    12    13    1
    23    13    14    1
    24    14    15    1
    25    15    16    1
    26    16    17    1
    27     6     2    1
    28    12     7   ar
    29    17    15    1
    30    15     4    1
    31    25    20   ar
    32     1    18    1
    33     1    19    1
@<TRIPOS>MOLECULE
*****
 29 33 0 0 0
SMALL
GASTEIGER

@<TRIPOS>ATOM
      1 N         143.3336  141.7936  164.6753 N.pl3   1  UNL1       -0.3133
      2 C         142.7578  141.7417  166.0595 C.2     1  UNL1        0.2770
      3 N         141.5135  141.0115  166.4699 N.2     1  UNL1       -0.2204
      4 C         141.3120  141.2294  167.9403 C.3     1  UNL1        0.1537
      5 C         142.4317  142.0942  168.4385 C.3     1  UNL1        0.2350
      6 O         143.3253  142.4108  167.2761 O.2     1  UNL1       -0.4478
      7 C         140.2585  140.3747  167.3001 C.ar    1  UNL1        0.0355
      8 C         140.3291  140.0704  165.8330 C.ar    1  UNL1        0.0007
      9 C         139.2756  139.2157  165.1928 C.ar    1  UNL1        0.0015
     10 C         138.1516  138.6653  166.0197 C.ar    1  UNL1        0.0031
     11 C         138.0811  138.9697  167.4869 C.ar    1  UNL1        0.0366
     12 C         139.1346  139.8243  168.1270 C.ar    1  UNL1        0.1364
     13 O         139.0641  140.1287  169.5942 O.3     1  UNL1       -0.4756
     14 C         140.1175  140.9833  170.2343 C.3     1  UNL1        0.2074
     15 C         141.2414  141.5337  169.4074 C.3     1  UNL1        0.0666
     16 C         142.4985  142.3448  169.2996 C.3     1  UNL1        0.0061
     17 C         141.8089  142.2028  170.6240 C.3     1  UNL1        0.0061
     18 H         142.8861  141.3191  163.9378 H       1  UNL1        0.1466
     19 H         144.1590  142.3022  164.5042 H       1  UNL1        0.1466
     20 C         139.3461  138.9114  163.7257 C.ar    1  UNL1        0.0222
     21 C         138.1607  139.1789  162.8464 C.ar    1  UNL1        0.0991
     22 N         138.2312  138.8746  161.3793 N.ar    1  UNL1       -0.2391
     23 C         139.4873  138.3027  160.7915 C.ar    1  UNL1        0.1358
     24 C         140.6727  138.0352  161.6708 C.ar    1  UNL1        0.1634
     25 C         140.6021  138.3395  163.1379 C.ar    1  UNL1        0.0403
     26 O         141.9286  137.4634  161.0830 O.3     1  UNL1       -0.4220
     27 C         143.2563  138.0842  161.4021 C.3     1  UNL1        0.5087
     28 F         143.3431  139.5478  161.7192 F       1  UNL1       -0.1550
     29 F         144.4972  137.2415  161.4043 F       1  UNL1       -0.1550
@<TRIPOS>BOND
     1     1     2    1
     2     2     3    2
     3     3     4    1
     4     4     5    1
     5     5     6    1
     6     4     7    1
     7     7     8   ar
     8     8     9   ar
     9     9    20    1
    10    20    21   ar
    11    21    22   ar
    12    22    23   ar
    13    23    24   ar
    14    24    26    1
    15    26    27    1
    16    27    28    1
    17    27    29    1
    18    24    25   ar
    19     9    10   ar
    20    10    11   ar
    21    11    12   ar
    22    12    13    1
    23    13    14    1
    24    14    15    1
    25    15    16    1
    26    16    17    1
    27     6     2    1
    28    12     7   ar
    29    17    15    1
    30    15     4    1
    31    25    20   ar
    32     1    18    1
    33     1    19    1
@<TRIPOS>MOLECULE
*****
 29 33 0 0 0
SMALL
GASTEIGER

@<TRIPOS>ATOM
      1 N         142.9138  143.1693  164.4633 N.pl3   1  UNL1       -0.3133
      2 C         142.7000  142.6049  165.8366 C.2     1  UNL1        0.2770
      3 N         141.5682  141.7154  166.2578 N.2     1  UNL1       -0.2204
      4 C         141.7492  141.3918  167.7113 C.3     1  UNL1        0.1537
      5 C         142.9930  142.0814  168.1883 C.3     1  UNL1        0.2350
      6 O         143.5806  142.8311  167.0297 O.2     1  UNL1       -0.4478
      7 C         140.5346  140.7649  167.0934 C.ar    1  UNL1        0.0355
      8 C         140.2240  141.0000  165.6449 C.ar    1  UNL1        0.0007
      9 C         139.0094  140.3732  165.0269 C.ar    1  UNL1        0.0015
     10 C         138.1054  139.5113  165.8575 C.ar    1  UNL1        0.0031
     11 C         138.4160  139.2762  167.3061 C.ar    1  UNL1        0.0366
     12 C         139.6306  139.9030  167.9240 C.ar    1  UNL1        0.1364
     13 O         139.9412  139.6680  169.3726 O.3     1  UNL1       -0.4756
     14 C         141.1558  140.2948  169.9905 C.3     1  UNL1        0.2074
     15 C         142.0598  141.1567  169.1599 C.3     1  UNL1        0.0666
     16 C         143.2830  142.0162  169.0371 C.3     1  UNL1        0.0061
     17 C         142.9404  141.3829  170.3529 C.3     1  UNL1        0.0061
     18 H         142.2770  142.9625  163.7415 H       1  UNL1        0.1466
     19 H         143.6909  143.7465  164.2838 H       1  UNL1        0.1466
     20 C         138.6988  140.6082  163.5784 C.ar    1  UNL1        0.0222
     21 C         138.1785  139.4851  162.7310 C.ar    1  UNL1        0.0991
     22 N         137.8679  139.7202  161.2825 N.ar    1  UNL1       -0.2391
     23 C         138.0777  141.0784  160.6813 C.ar    1  UNL1        0.1358
     24 C         138.5980  142.2015  161.5286 C.ar    1  UNL1        0.1634
     25 C         138.9086  141.9663  162.9772 C.ar    1  UNL1        0.0403
     26 O         138.8077  143.5596  160.9274 O.3     1  UNL1       -0.4220
     27 C         139.6519  144.5734  161.6412 C.3     1  UNL1        0.5087
     28 F         139.0407  145.8590  162.1143 F       1  UNL1       -0.1550
     29 F         141.1074  144.3018  161.8817 F       1  UNL1       -0.1550
@<TRIPOS>BOND
     1     1     2    1
     2     2     3    2
     3     3     4    1
     4     4     5    1
     5     5     6    1
     6     4     7    1
     7     7     8   ar
     8     8     9   ar
     9     9    20    1
    10    20    21   ar
    11    21    22   ar
    12    22    23   ar
    13    23    24   ar
    14    24    26    1
    15    26    27    1
    16    27    28    1
    17    27    29    1
    18    24    25   ar
    19     9    10   ar
    20    10    11   ar
    21    11    12   ar
    22    12    13    1
    23    13    14    1
    24    14    15    1
    25    15    16    1
    26    16    17    1
    27     6     2    1
    28    12     7   ar
    29    17    15    1
    30    15     4    1
    31    25    20   ar
    32     1    18    1
    33     1    19    1
@<TRIPOS>MOLECULE
*****
 29 33 0 0 0
SMALL
GASTEIGER

@<TRIPOS>ATOM
      1 N         143.8731  141.7091  165.2322 N.pl3   1  UNL1       -0.3133
      2 C         143.0712  140.8183  164.3302 C.2     1  UNL1        0.2770
      3 N         141.7726  140.1522  164.6765 N.2     1  UNL1       -0.2204
      4 C         141.3259  139.3595  163.4839 C.3     1  UNL1        0.1537
      5 C         142.3484  139.5359  162.4007 C.3     1  UNL1        0.2350
      6 O         143.4270  140.4374  162.9237 O.2     1  UNL1       -0.4478
      7 C         140.3928  139.2773  164.6555 C.ar    1  UNL1        0.0355
      8 C         140.7095  140.0192  165.9201 C.ar    1  UNL1        0.0007
      9 C         139.7764  139.9370  167.0917 C.ar    1  UNL1        0.0015
     10 C         138.5267  139.1127  166.9987 C.ar    1  UNL1        0.0031
     11 C         138.2100  138.3707  165.7340 C.ar    1  UNL1        0.0366
     12 C         139.1430  138.4530  164.5625 C.ar    1  UNL1        0.1364
     13 O         138.8264  137.7110  163.2979 O.3     1  UNL1       -0.4756
     14 C         139.7594  137.7933  162.1263 C.3     1  UNL1        0.2074
     15 C         141.0092  138.6175  162.2193 C.3     1  UNL1        0.0666
     16 C         142.2695  139.1409  161.5966 C.3     1  UNL1        0.0061
     17 C         141.3651  138.2367  160.8128 C.3     1  UNL1        0.0061
     18 H         143.5551  141.9012  166.1440 H       1  UNL1        0.1466
     19 H         144.7175  142.1016  164.9125 H       1  UNL1        0.1466
     20 C         140.0932  140.6790  168.3562 C.ar    1  UNL1        0.0222
     21 C         139.1684  140.5837  169.5334 C.ar    1  UNL1        0.0991
     22 N         139.4851  141.3257  170.7979 N.ar    1  UNL1       -0.2391
     23 C         140.7266  142.1630  170.8854 C.ar    1  UNL1        0.1358
     24 C         141.6514  142.2582  169.7082 C.ar    1  UNL1        0.1634
     25 C         141.3347  141.5161  168.4436 C.ar    1  UNL1        0.0403
     26 O         142.8930  143.0954  169.7956 O.3     1  UNL1       -0.4220
     27 C         144.2081  142.4543  170.1263 C.3     1  UNL1        0.5087
     28 F         145.4557  143.2855  170.1785 F       1  UNL1       -0.1550
     29 F         144.2757  140.9819  170.4048 F       1  UNL1       -0.1550
@<TRIPOS>BOND
     1     1     2    1
     2     2     3    2
     3     3     4    1
     4     4     5    1
     5     5     6    1
     6     4     7    1
     7     7     8   ar
     8     8     9   ar
     9     9    20    1
    10    20    21   ar
    11    21    22   ar
    12    22    23   ar
    13    23    24   ar
    14    24    26    1
    15    26    27    1
    16    27    28    1
    17    27    29    1
    18    24    25   ar
    19     9    10   ar
    20    10    11   ar
    21    11    12   ar
    22    12    13    1
    23    13    14    1
    24    14    15    1
    25    15    16    1
    26    16    17    1
    27     6     2    1
    28    12     7   ar
    29    17    15    1
    30    15     4    1
    31    25    20   ar
    32     1    18    1
    33     1    19    1
@<TRIPOS>MOLECULE
*****
 29 33 0 0 0
SMALL
GASTEIGER

@<TRIPOS>ATOM
      1 N         144.9973  139.7548  164.6197 N.pl3   1  UNL1       -0.3133
      2 C         143.9047  139.4040  163.6537 C.2     1  UNL1        0.2770
      3 N         142.4468  139.2729  163.9812 N.2     1  UNL1       -0.2204
      4 C         141.7193  138.9105  162.7205 C.3     1  UNL1        0.1537
      5 C         142.7276  138.8176  161.6138 C.3     1  UNL1        0.2350
      6 O         144.0782  139.1225  162.1906 O.2     1  UNL1       -0.4478
      7 C         140.8307  139.0397  163.9221 C.ar    1  UNL1        0.0355
      8 C         141.4187  139.3980  165.2547 C.ar    1  UNL1        0.0007
      9 C         140.5301  139.5271  166.4563 C.ar    1  UNL1        0.0015
     10 C         139.0535  139.2979  166.3253 C.ar    1  UNL1        0.0031
     11 C         138.4655  138.9395  164.9926 C.ar    1  UNL1        0.0366
     12 C         139.3541  138.8104  163.7911 C.ar    1  UNL1        0.1364
     13 O         138.7661  138.4521  162.4584 O.3     1  UNL1       -0.4756
     14 C         139.6547  138.3230  161.2569 C.3     1  UNL1        0.2074
     15 C         141.1312  138.5522  161.3879 C.3     1  UNL1        0.0666
     16 C         142.4967  138.6100  160.7698 C.3     1  UNL1        0.0061
     17 C         141.3048  138.2708  159.9248 C.3     1  UNL1        0.0061
     18 H         144.7828  139.9228  165.5657 H       1  UNL1        0.1466
     19 H         145.9290  139.8171  164.3077 H       1  UNL1        0.1466
     20 C         141.1181  139.8854  167.7889 C.ar    1  UNL1        0.0222
     21 C         142.5147  139.4586  168.1316 C.ar    1  UNL1        0.0991
     22 N         143.1027  139.8169  169.4642 N.ar    1  UNL1       -0.2391
     23 C         142.2942  140.6020  170.4541 C.ar    1  UNL1        0.1358
     24 C         140.8976  141.0288  170.1114 C.ar    1  UNL1        0.1634
     25 C         140.3096  140.6704  168.7787 C.ar    1  UNL1        0.0403
     26 O         140.0890  141.8138  171.1013 O.3     1  UNL1       -0.4220
     27 C         139.6746  143.2201  170.7839 C.3     1  UNL1        0.5087
     28 F         138.6198  143.8955  171.6093 F       1  UNL1       -0.1550
     29 F         140.3150  143.9509  169.6412 F       1  UNL1       -0.1550
@<TRIPOS>BOND
     1     1     2    1
     2     2     3    2
     3     3     4    1
     4     4     5    1
     5     5     6    1
     6     4     7    1
     7     7     8   ar
     8     8     9   ar
     9     9    20    1
    10    20    21   ar
    11    21    22   ar
    12    22    23   ar
    13    23    24   ar
    14    24    26    1
    15    26    27    1
    16    27    28    1
    17    27    29    1
    18    24    25   ar
    19     9    10   ar
    20    10    11   ar
    21    11    12   ar
    22    12    13    1
    23    13    14    1
    24    14    15    1
    25    15    16    1
    26    16    17    1
    27     6     2    1
    28    12     7   ar
    29    17    15    1
    30    15     4    1
    31    25    20   ar
    32     1    18    1
    33     1    19    1
@<TRIPOS>MOLECULE
*****
 29 33 0 0 0
SMALL
GASTEIGER

@<TRIPOS>ATOM
      1 N         143.4319  141.9025  164.8886 N.pl3   1  UNL1       -0.3133
      2 C         142.8304  141.7877  166.2580 C.2     1  UNL1        0.2770
      3 N         141.5746  141.0468  166.6099 N.2     1  UNL1       -0.2204
      4 C         141.3471  141.1949  168.0852 C.3     1  UNL1        0.1537
      5 C         142.4624  142.0274  168.6449 C.3     1  UNL1        0.2350
      6 O         143.3790  142.3938  167.5156 O.2     1  UNL1       -0.4478
      7 C         140.3009  140.3790  167.3854 C.ar    1  UNL1        0.0355
      8 C         140.3968  140.1452  165.9069 C.ar    1  UNL1        0.0007
      9 C         139.3505  139.3293  165.2071 C.ar    1  UNL1        0.0015
     10 C         138.2084  138.7471  165.9859 C.ar    1  UNL1        0.0031
     11 C         138.1125  138.9809  167.4645 C.ar    1  UNL1        0.0366
     12 C         139.1587  139.7968  168.1642 C.ar    1  UNL1        0.1364
     13 O         139.0628  140.0306  169.6429 O.3     1  UNL1       -0.4756
     14 C         140.1091  140.8465  170.3426 C.3     1  UNL1        0.2074
     15 C         141.2512  141.4286  169.5638 C.3     1  UNL1        0.0666
     16 C         142.5147  142.2358  169.5182 C.3     1  UNL1        0.0061
     17 C         141.7999  142.0346  170.8214 C.3     1  UNL1        0.0061
     18 H         142.9954  141.4670  164.1211 H       1  UNL1        0.1466
     19 H         144.2632  142.4134  164.7574 H       1  UNL1        0.1466
     20 C         139.4465  139.0956  163.7285 C.ar    1  UNL1        0.0222
     21 C         140.2071  137.9140  163.2038 C.ar    1  UNL1        0.0991
     22 N         140.3030  137.6803  161.7253 N.ar    1  UNL1       -0.2391
     23 C         139.6383  138.6282  160.7714 C.ar    1  UNL1        0.1358
     24 C         138.8777  139.8097  161.2961 C.ar    1  UNL1        0.1634
     25 C         138.7818  140.0434  162.7748 C.ar    1  UNL1        0.0403
     26 O         138.2130  140.7575  160.3424 O.3     1  UNL1       -0.4220
     27 C         138.3745  142.2380  160.5216 C.3     1  UNL1        0.5087
     28 F         139.3197  143.0013  159.6418 F       1  UNL1       -0.1550
     29 F         137.5908  142.9552  161.5806 F       1  UNL1       -0.1550
@<TRIPOS>BOND
     1     1     2    1
     2     2     3    2
     3     3     4    1
     4     4     5    1
     5     5     6    1
     6     4     7    1
     7     7     8   ar
     8     8     9   ar
     9     9    20    1
    10    20    21   ar
    11    21    22   ar
    12    22    23   ar
    13    23    24   ar
    14    24    26    1
    15    26    27    1
    16    27    28    1
    17    27    29    1
    18    24    25   ar
    19     9    10   ar
    20    10    11   ar
    21    11    12   ar
    22    12    13    1
    23    13    14    1
    24    14    15    1
    25    15    16    1
    26    16    17    1
    27     6     2    1
    28    12     7   ar
    29    17    15    1
    30    15     4    1
    31    25    20   ar
    32     1    18    1
    33     1    19    1
@<TRIPOS>MOLECULE
*****
 29 33 0 0 0
SMALL
GASTEIGER

@<TRIPOS>ATOM
      1 N         143.4348  140.3867  162.9904 N.pl3   1  UNL1       -0.3133
      2 C         142.7856  141.5781  162.3507 C.2     1  UNL1        0.2770
      3 N         141.7794  142.4854  162.9943 N.2     1  UNL1       -0.2204
      4 C         141.4006  143.5394  161.9964 C.3     1  UNL1        0.1537
      5 C         142.1727  143.2834  160.7361 C.3     1  UNL1        0.2350
      6 O         143.0286  142.0713  160.9551 O.2     1  UNL1       -0.4478
      7 C         140.7006  143.6694  163.3167 C.ar    1  UNL1        0.0355
      8 C         140.9796  142.6851  164.4137 C.ar    1  UNL1        0.0007
      9 C         140.2796  142.8152  165.7340 C.ar    1  UNL1        0.0015
     10 C         139.3006  143.9294  165.9573 C.ar    1  UNL1        0.0031
     11 C         139.0215  144.9137  164.8602 C.ar    1  UNL1        0.0366
     12 C         139.7215  144.7837  163.5400 C.ar    1  UNL1        0.1364
     13 O         139.4425  145.7679  162.4430 O.3     1  UNL1       -0.4756
     14 C         140.1425  145.6379  161.1227 C.3     1  UNL1        0.2074
     15 C         141.1215  144.5236  160.8995 C.3     1  UNL1        0.0666
     16 C         142.0909  143.8052  160.0083 C.3     1  UNL1        0.0061
     17 C         141.3646  145.0168  159.5039 C.3     1  UNL1        0.0061
     18 H         143.2090  140.1412  163.9166 H       1  UNL1        0.1466
     19 H         144.0867  139.8502  162.4839 H       1  UNL1        0.1466
     20 C         140.5586  141.8309  166.8310 C.ar    1  UNL1        0.0222
     21 C         139.6155  140.6899  167.0727 C.ar    1  UNL1        0.0991
     22 N         139.8945  139.7056  168.1696 N.ar    1  UNL1       -0.2391
     23 C         141.1168  139.8624  169.0250 C.ar    1  UNL1        0.1358
     24 C         142.0600  141.0035  168.7833 C.ar    1  UNL1        0.1634
     25 C         141.7809  141.9877  167.6863 C.ar    1  UNL1        0.0403
     26 O         143.2822  141.1603  169.6386 O.3     1  UNL1       -0.4220
     27 C         143.7487  142.5293  170.0362 C.3     1  UNL1        0.5087
     28 F         142.7503  143.5753  170.4354 F       1  UNL1       -0.1550
     29 F         145.2134  142.8524  170.0347 F       1  UNL1       -0.1550
@<TRIPOS>BOND
     1     1     2    1
     2     2     3    2
     3     3     4    1
     4     4     5    1
     5     5     6    1
     6     4     7    1
     7     7     8   ar
     8     8     9   ar
     9     9    20    1
    10    20    21   ar
    11    21    22   ar
    12    22    23   ar
    13    23    24   ar
    14    24    26    1
    15    26    27    1
    16    27    28    1
    17    27    29    1
    18    24    25   ar
    19     9    10   ar
    20    10    11   ar
    21    11    12   ar
    22    12    13    1
    23    13    14    1
    24    14    15    1
    25    15    16    1
    26    16    17    1
    27     6     2    1
    28    12     7   ar
    29    17    15    1
    30    15     4    1
    31    25    20   ar
    32     1    18    1
    33     1    19    1
@<TRIPOS>MOLECULE
*****
 29 33 0 0 0
SMALL
GASTEIGER

@<TRIPOS>ATOM
      1 N         138.2379  138.9811  165.9715 N.pl3   1  UNL1       -0.3133
      2 C         139.0625  139.6233  167.0474 C.2     1  UNL1        0.2770
      3 N         140.2987  140.4465  166.8376 N.2     1  UNL1       -0.2204
      4 C         140.7959  140.8871  168.1826 C.3     1  UNL1        0.1537
      5 C         139.8670  140.3361  169.2235 C.3     1  UNL1        0.2350
      6 O         138.7957  139.5551  168.5219 O.2     1  UNL1       -0.4478
      7 C         141.6336  141.3679  167.0349 C.ar    1  UNL1        0.0355
      8 C         141.2581  141.0053  165.6287 C.ar    1  UNL1        0.0007
      9 C         142.0958  141.4861  164.4810 C.ar    1  UNL1        0.0015
     10 C         143.3090  142.3296  164.7396 C.ar    1  UNL1        0.0031
     11 C         143.6845  142.6921  166.1459 C.ar    1  UNL1        0.0366
     12 C         142.8468  142.2113  167.2935 C.ar    1  UNL1        0.1364
     13 O         143.2223  142.5739  168.6998 O.3     1  UNL1       -0.4756
     14 C         142.3846  142.0931  169.8474 C.3     1  UNL1        0.2074
     15 C         141.1714  141.2496  169.5888 C.3     1  UNL1        0.0666
     16 C         139.9874  140.4851  170.1021 C.3     1  UNL1        0.0061
     17 C         140.9046  141.1814  171.0633 C.3     1  UNL1        0.0061
     18 H         138.4952  139.0835  165.0268 H       1  UNL1        0.1466
     19 H         137.4392  138.4572  166.2101 H       1  UNL1        0.1466
     20 C         141.7203  141.1236  163.0748 C.ar    1  UNL1        0.0222
     21 C         142.1714  141.9846  161.9323 C.ar    1  UNL1        0.0991
     22 N         141.7959  141.6220  160.5261 N.ar    1  UNL1       -0.2391
     23 C         140.9693  140.3983  160.2623 C.ar    1  UNL1        0.1358
     24 C         140.5183  139.5373  161.4047 C.ar    1  UNL1        0.1634
     25 C         140.8938  139.9000  162.8110 C.ar    1  UNL1        0.0403
     26 O         139.6917  138.3137  161.1410 O.3     1  UNL1       -0.4220
     27 C         138.5658  137.9557  162.0652 C.3     1  UNL1        0.5087
     28 F         137.1552  138.3152  161.7032 F       1  UNL1       -0.1550
     29 F         138.8505  137.2382  163.3513 F       1  UNL1       -0.1550
@<TRIPOS>BOND
     1     1     2    1
     2     2     3    2
     3     3     4    1
     4     4     5    1
     5     5     6    1
     6     4     7    1
     7     7     8   ar
     8     8     9   ar
     9     9    20    1
    10    20    21   ar
    11    21    22   ar
    12    22    23   ar
    13    23    24   ar
    14    24    26    1
    15    26    27    1
    16    27    28    1
    17    27    29    1
    18    24    25   ar
    19     9    10   ar
    20    10    11   ar
    21    11    12   ar
    22    12    13    1
    23    13    14    1
    24    14    15    1
    25    15    16    1
    26    16    17    1
    27     6     2    1
    28    12     7   ar
    29    17    15    1
    30    15     4    1
    31    25    20   ar
    32     1    18    1
    33     1    19    1
