@<TRIPOS>MOLECULE
*****
 26 29 0 0 0
SMALL
GASTEIGER

@<TRIPOS>ATOM
      1 C         144.0091  142.4446  163.0532 C.2     1  UNL1        0.1571
      2 N         145.4666  142.2430  162.7615 N.2     1  UNL1       -0.1436
      3 N         145.9016  140.9726  163.4300 N.2     1  UNL1       -0.1519
      4 C         144.7130  140.3891  164.1348 C.2     1  UNL1        0.0865
      5 C         144.5446  139.1470  164.9586 C.3     1  UNL1        0.0736
      6 C         143.2065  138.8146  165.5494 C.2     1  UNL1       -0.0196
      7 C         142.0369  139.7244  165.3165 C.2     1  UNL1       -0.0016
      8 C         142.2053  140.9665  164.4928 C.2     1  UNL1        0.0027
      9 C         143.5433  141.2989  163.9019 C.2     1  UNL1        0.0395
     10 C         140.6988  139.3920  165.9074 C.ar    1  UNL1        0.0294
     11 C         139.7519  138.4975  165.1637 C.ar    1  UNL1        0.0024
     12 C         138.4138  138.1650  165.7546 C.ar    1  UNL1        0.0025
     13 C         138.0227  138.7272  167.0892 C.ar    1  UNL1        0.0320
     14 C         138.9697  139.6217  167.8329 C.ar    1  UNL1        0.1674
     15 F         138.5787  140.1838  169.1675 F       1  UNL1       -0.2018
     16 C         140.3078  139.9541  167.2420 C.ar    1  UNL1        0.1673
     17 F         141.2548  140.8486  167.9857 F       1  UNL1       -0.2018
     18 O         143.6908  144.9933  162.6621 O.2     1  UNL1       -0.2684
     19 C         143.1655  143.5908  162.5793 C.2     1  UNL1        0.2654
     20 N         141.7964  143.3344  162.0225 N.am    1  UNL1       -0.2986
     21 H         141.4515  142.4139  161.9681 H       1  UNL1        0.1498
     22 C         140.9528  144.4806  161.5486 C.3     1  UNL1        0.1039
     23 C         140.3180  145.5262  162.4168 C.3     1  UNL1        0.0542
     24 C         139.5687  146.4742  161.5281 C.3     1  UNL1        0.1440
     25 O         139.7404  146.0145  160.1107 O.3     1  UNL1       -0.3520
     26 C         140.5958  144.7824  160.1233 C.3     1  UNL1        0.1616
@<TRIPOS>BOND
     1    18    19    2
     2    19    20   am
     3    20    22    1
     4    22    23    1
     5    23    24    1
     6    24    25    1
     7    25    26    1
     8    19     1    1
     9     1     2    2
    10     2     3    1
    11     3     4    2
    12     4     5    1
    13     5     6    1
    14     6     7    2
    15     7    10    1
    16    10    11   ar
    17    11    12   ar
    18    12    13   ar
    19    13    14   ar
    20    14    15    1
    21    14    16   ar
    22    16    17    1
    23     7     8    1
    24     8     9    2
    25    26    22    1
    26     9     1    1
    27     9     4    1
    28    16    10   ar
    29    20    21    1
@<TRIPOS>MOLECULE
*****
 26 29 0 0 0
SMALL
GASTEIGER

@<TRIPOS>ATOM
      1 C         143.0808  141.2079  163.0456 C.2     1  UNL1        0.1571
      2 N         143.8864  140.1736  162.3167 N.2     1  UNL1       -0.1436
      3 N         144.1936  139.0636  163.2777 N.2     1  UNL1       -0.1519
      4 C         143.5778  139.4118  164.6004 C.2     1  UNL1        0.0865
      5 C         143.5545  138.6933  165.9169 C.3     1  UNL1        0.0736
      6 C         142.8434  139.3001  167.0899 C.2     1  UNL1       -0.0196
      7 C         142.1556  140.6253  166.9465 C.2     1  UNL1       -0.0016
      8 C         142.1789  141.3438  165.6300 C.2     1  UNL1        0.0027
      9 C         142.8900  140.7370  164.4570 C.2     1  UNL1        0.0395
     10 C         141.4445  141.2321  168.1196 C.ar    1  UNL1        0.0294
     11 C         142.0249  142.4303  168.8107 C.ar    1  UNL1        0.0024
     12 C         141.3138  143.0370  169.9839 C.ar    1  UNL1        0.0025
     13 C         140.0223  142.4456  170.4659 C.ar    1  UNL1        0.0320
     14 C         139.4419  141.2474  169.7747 C.ar    1  UNL1        0.1674
     15 F         138.1505  140.6560  170.2568 F       1  UNL1       -0.2018
     16 C         140.1531  140.6407  168.6017 C.ar    1  UNL1        0.1673
     17 F         139.5727  139.4425  167.9105 F       1  UNL1       -0.2018
     18 O         143.5091  143.4943  161.8886 O.2     1  UNL1       -0.2684
     19 C         142.5577  142.4882  162.4650 C.2     1  UNL1        0.2654
     20 N         141.0829  142.7625  162.4609 N.am    1  UNL1       -0.2986
     21 H         140.4583  142.1022  162.8393 H       1  UNL1        0.1498
     22 C         140.5597  144.0429  161.8804 C.3     1  UNL1        0.1039
     23 C         140.2358  145.2909  162.6468 C.3     1  UNL1        0.0542
     24 C         139.7446  146.3194  161.6716 C.3     1  UNL1        0.1440
     25 O         139.7649  145.7069  160.3025 O.3     1  UNL1       -0.3520
     26 C         140.2687  144.2999  160.4315 C.3     1  UNL1        0.1616
@<TRIPOS>BOND
     1    18    19    2
     2    19    20   am
     3    20    22    1
     4    22    23    1
     5    23    24    1
     6    24    25    1
     7    25    26    1
     8    19     1    1
     9     1     2    2
    10     2     3    1
    11     3     4    2
    12     4     5    1
    13     5     6    1
    14     6     7    2
    15     7    10    1
    16    10    11   ar
    17    11    12   ar
    18    12    13   ar
    19    13    14   ar
    20    14    15    1
    21    14    16   ar
    22    16    17    1
    23     7     8    1
    24     8     9    2
    25    26    22    1
    26     9     1    1
    27     9     4    1
    28    16    10   ar
    29    20    21    1
@<TRIPOS>MOLECULE
*****
 26 29 0 0 0
SMALL
GASTEIGER

@<TRIPOS>ATOM
      1 C         140.6880  138.6459  163.9672 C.2     1  UNL1        0.1571
      2 N         139.7622  137.7779  163.1676 N.2     1  UNL1       -0.1436
      3 N         138.5341  137.5277  163.9917 N.2     1  UNL1       -0.1519
      4 C         138.7010  138.2410  165.3007 C.2     1  UNL1        0.0865
      5 C         137.8128  138.3504  166.5044 C.3     1  UNL1        0.0736
      6 C         138.2558  139.1510  167.6930 C.2     1  UNL1       -0.0196
      7 C         139.5870  139.8422  167.6778 C.2     1  UNL1       -0.0016
      8 C         140.4752  139.7327  166.4741 C.2     1  UNL1        0.0027
      9 C         140.0322  138.9321  165.2855 C.2     1  UNL1        0.0395
     10 C         140.0300  140.6428  168.8665 C.ar    1  UNL1        0.0294
     11 C         140.3082  139.9570  170.1712 C.ar    1  UNL1        0.0024
     12 C         140.7511  140.7576  171.3599 C.ar    1  UNL1        0.0025
     13 C         140.9159  142.2440  171.2437 C.ar    1  UNL1        0.0320
     14 C         140.6378  142.9298  169.9389 C.ar    1  UNL1        0.1674
     15 F         140.8025  144.4162  169.8228 F       1  UNL1       -0.2018
     16 C         140.1948  142.1292  168.7504 C.ar    1  UNL1        0.1673
     17 F         139.9166  142.8149  167.4456 F       1  UNL1       -0.2018
     18 O         143.0078  138.1960  162.8874 O.2     1  UNL1       -0.2684
     19 C         142.0335  139.1408  163.5259 C.2     1  UNL1        0.2654
     20 N         142.4047  140.5808  163.7233 N.am    1  UNL1       -0.2986
     21 H         141.7652  141.2010  164.1424 H       1  UNL1        0.1498
     22 C         143.7502  141.0757  163.2821 C.3     1  UNL1        0.1039
     23 C         144.9487  141.2740  164.1620 C.3     1  UNL1        0.0542
     24 C         146.0727  141.7801  163.3072 C.3     1  UNL1        0.1440
     25 O         145.5687  141.8946  161.8991 O.3     1  UNL1       -0.3520
     26 C         144.1334  141.4593  161.8835 C.3     1  UNL1        0.1616
@<TRIPOS>BOND
     1    18    19    2
     2    19    20   am
     3    20    22    1
     4    22    23    1
     5    23    24    1
     6    24    25    1
     7    25    26    1
     8    19     1    1
     9     1     2    2
    10     2     3    1
    11     3     4    2
    12     4     5    1
    13     5     6    1
    14     6     7    2
    15     7    10    1
    16    10    11   ar
    17    11    12   ar
    18    12    13   ar
    19    13    14   ar
    20    14    15    1
    21    14    16   ar
    22    16    17    1
    23     7     8    1
    24     8     9    2
    25    26    22    1
    26     9     1    1
    27     9     4    1
    28    16    10   ar
    29    20    21    1
@<TRIPOS>MOLECULE
*****
 26 29 0 0 0
SMALL
GASTEIGER

@<TRIPOS>ATOM
      1 C         143.3540  141.5806  169.6965 C.2     1  UNL1        0.1571
      2 N         143.3417  140.2026  170.2889 N.2     1  UNL1       -0.1436
      3 N         142.7004  139.2776  169.2974 N.2     1  UNL1       -0.1519
      4 C         142.3164  140.0839  168.0922 C.2     1  UNL1        0.0865
      5 C         141.6511  139.7059  166.8021 C.3     1  UNL1        0.0736
      6 C         141.3897  140.7513  165.7587 C.2     1  UNL1       -0.0196
      7 C         141.7937  142.1747  166.0054 C.2     1  UNL1       -0.0016
      8 C         142.4590  142.5527  167.2955 C.2     1  UNL1        0.0027
      9 C         142.7203  141.5073  168.3389 C.2     1  UNL1        0.0395
     10 C         141.5323  143.2201  164.9618 C.ar    1  UNL1        0.0294
     11 C         142.6795  143.8620  164.2394 C.ar    1  UNL1        0.0024
     12 C         142.4181  144.9074  163.1959 C.ar    1  UNL1        0.0025
     13 C         141.0095  145.3109  162.8748 C.ar    1  UNL1        0.0320
     14 C         139.8623  144.6689  163.5973 C.ar    1  UNL1        0.1674
     15 F         138.4537  145.0724  163.2763 F       1  UNL1       -0.2018
     16 C         140.1237  143.6236  164.6408 C.ar    1  UNL1        0.1673
     17 F         138.9765  142.9816  165.3632 F       1  UNL1       -0.2018
     18 O         142.9707  143.8287  170.9411 O.2     1  UNL1       -0.2684
     19 C         143.9036  142.8152  170.3474 C.2     1  UNL1        0.2654
     20 N         145.3861  143.0364  170.4047 N.am    1  UNL1       -0.2986
     21 H         145.9985  142.3712  170.0151 H       1  UNL1        0.1498
     22 C         145.9357  144.2710  171.0556 C.3     1  UNL1        0.1039
     23 C         145.1317  145.3533  171.7133 C.3     1  UNL1        0.0542
     24 C         146.0848  146.3913  172.2273 C.3     1  UNL1        0.1440
     25 O         147.4777  145.9506  171.8873 O.3     1  UNL1       -0.3520
     26 C         147.3855  144.6402  171.1632 C.3     1  UNL1        0.1616
@<TRIPOS>BOND
     1    18    19    2
     2    19    20   am
     3    20    22    1
     4    22    23    1
     5    23    24    1
     6    24    25    1
     7    25    26    1
     8    19     1    1
     9     1     2    2
    10     2     3    1
    11     3     4    2
    12     4     5    1
    13     5     6    1
    14     6     7    2
    15     7    10    1
    16    10    11   ar
    17    11    12   ar
    18    12    13   ar
    19    13    14   ar
    20    14    15    1
    21    14    16   ar
    22    16    17    1
    23     7     8    1
    24     8     9    2
    25    26    22    1
    26     9     1    1
    27     9     4    1
    28    16    10   ar
    29    20    21    1
@<TRIPOS>MOLECULE
*****
 26 29 0 0 0
SMALL
GASTEIGER

@<TRIPOS>ATOM
      1 C         142.9436  141.0104  162.9203 C.2     1  UNL1        0.1571
      2 N         143.6272  139.9301  162.1357 N.2     1  UNL1       -0.1436
      3 N         143.9356  138.8007  163.0733 N.2     1  UNL1       -0.1519
      4 C         143.4427  139.1829  164.4375 C.2     1  UNL1        0.0865
      5 C         143.4730  138.4639  165.7535 C.3     1  UNL1        0.0736
      6 C         142.8901  139.1105  166.9750 C.2     1  UNL1       -0.0196
      7 C         142.2769  140.4762  166.8804 C.2     1  UNL1       -0.0016
      8 C         142.2467  141.1953  165.5644 C.2     1  UNL1        0.0027
      9 C         142.8296  140.5486  164.3429 C.2     1  UNL1        0.0395
     10 C         141.6940  141.1229  168.1020 C.ar    1  UNL1        0.0294
     11 C         140.3429  140.7032  168.6004 C.ar    1  UNL1        0.0024
     12 C         139.7600  141.3499  169.8220 C.ar    1  UNL1        0.0025
     13 C         140.5283  142.4162  170.5450 C.ar    1  UNL1        0.0320
     14 C         141.8794  142.8358  170.0466 C.ar    1  UNL1        0.1674
     15 F         142.6477  143.9021  170.7697 F       1  UNL1       -0.2018
     16 C         142.4623  142.1892  168.8251 C.ar    1  UNL1        0.1673
     17 F         143.8134  142.6088  168.3266 F       1  UNL1       -0.2018
     18 O         143.4410  143.3190  161.8375 O.2     1  UNL1       -0.2684
     19 C         142.4591  142.3221  162.3777 C.2     1  UNL1        0.2654
     20 N         140.9924  142.6370  162.3752 N.am    1  UNL1       -0.2986
     21 H         140.3478  141.9827  162.7297 H       1  UNL1        0.1498
     22 C         140.5079  143.9488  161.8325 C.3     1  UNL1        0.1039
     23 C         140.2365  145.1879  162.6331 C.3     1  UNL1        0.0542
     24 C         139.7706  146.2567  161.6894 C.3     1  UNL1        0.1440
     25 O         139.7539  145.6781  160.3056 O.3     1  UNL1       -0.3520
     26 C         140.2096  144.2517  160.3940 C.3     1  UNL1        0.1616
@<TRIPOS>BOND
     1    18    19    2
     2    19    20   am
     3    20    22    1
     4    22    23    1
     5    23    24    1
     6    24    25    1
     7    25    26    1
     8    19     1    1
     9     1     2    2
    10     2     3    1
    11     3     4    2
    12     4     5    1
    13     5     6    1
    14     6     7    2
    15     7    10    1
    16    10    11   ar
    17    11    12   ar
    18    12    13   ar
    19    13    14   ar
    20    14    15    1
    21    14    16   ar
    22    16    17    1
    23     7     8    1
    24     8     9    2
    25    26    22    1
    26     9     1    1
    27     9     4    1
    28    16    10   ar
    29    20    21    1
@<TRIPOS>MOLECULE
*****
 26 29 0 0 0
SMALL
GASTEIGER

@<TRIPOS>ATOM
      1 C         143.3712  141.5599  169.7732 C.2     1  UNL1        0.1571
      2 N         143.1367  140.2601  170.4841 N.2     1  UNL1       -0.1436
      3 N         142.5882  139.2802  169.4895 N.2     1  UNL1       -0.1519
      4 C         142.4838  139.9745  168.1640 C.2     1  UNL1        0.0865
      5 C         142.0106  139.5057  166.8200 C.3     1  UNL1        0.0736
      6 C         142.0214  140.4460  165.6513 C.2     1  UNL1       -0.0196
      7 C         142.5052  141.8549  165.8266 C.2     1  UNL1       -0.0016
      8 C         142.9784  142.3236  167.1706 C.2     1  UNL1        0.0027
      9 C         142.9677  141.3834  168.3393 C.2     1  UNL1        0.0395
     10 C         142.5159  142.7951  164.6578 C.ar    1  UNL1        0.0294
     11 C         141.4042  143.7868  164.4828 C.ar    1  UNL1        0.0024
     12 C         141.4149  144.7270  163.3141 C.ar    1  UNL1        0.0025
     13 C         142.5374  144.6755  162.3204 C.ar    1  UNL1        0.0320
     14 C         143.6491  143.6838  162.4954 C.ar    1  UNL1        0.1674
     15 F         144.7716  143.6323  161.5017 F       1  UNL1       -0.2018
     16 C         143.6384  142.7436  163.6641 C.ar    1  UNL1        0.1673
     17 F         144.7501  141.7519  163.8392 F       1  UNL1       -0.2018
     18 O         142.9745  143.8571  170.9200 O.2     1  UNL1       -0.2684
     19 C         143.9139  142.8158  170.3882 C.2     1  UNL1        0.2654
     20 N         145.3962  143.0303  170.4714 N.am    1  UNL1       -0.2986
     21 H         146.0129  142.3468  170.1223 H       1  UNL1        0.1498
     22 C         145.9389  144.2862  171.0864 C.3     1  UNL1        0.1039
     23 C         145.1331  145.3589  171.7573 C.3     1  UNL1        0.0542
     24 C         146.0789  146.4255  172.2240 C.3     1  UNL1        0.1440
     25 O         147.4691  146.0121  171.8415 O.3     1  UNL1       -0.3520
     26 C         147.3826  144.6899  171.1384 C.3     1  UNL1        0.1616
@<TRIPOS>BOND
     1    18    19    2
     2    19    20   am
     3    20    22    1
     4    22    23    1
     5    23    24    1
     6    24    25    1
     7    25    26    1
     8    19     1    1
     9     1     2    2
    10     2     3    1
    11     3     4    2
    12     4     5    1
    13     5     6    1
    14     6     7    2
    15     7    10    1
    16    10    11   ar
    17    11    12   ar
    18    12    13   ar
    19    13    14   ar
    20    14    15    1
    21    14    16   ar
    22    16    17    1
    23     7     8    1
    24     8     9    2
    25    26    22    1
    26     9     1    1
    27     9     4    1
    28    16    10   ar
    29    20    21    1
@<TRIPOS>MOLECULE
*****
 26 29 0 0 0
SMALL
GASTEIGER

@<TRIPOS>ATOM
      1 C         142.9112  143.9857  162.4108 C.2     1  UNL1        0.1571
      2 N         143.9228  144.9754  162.9079 N.2     1  UNL1       -0.1436
      3 N         144.2519  144.6275  164.3294 N.2     1  UNL1       -0.1519
      4 C         143.4438  143.4228  164.7109 C.2     1  UNL1        0.0865
      5 C         143.3553  142.6358  165.9847 C.3     1  UNL1        0.0736
      6 C         142.4382  141.4521  166.0728 C.2     1  UNL1       -0.0196
      7 C         141.6096  141.0554  164.8870 C.2     1  UNL1       -0.0016
      8 C         141.6981  141.8424  163.6132 C.2     1  UNL1        0.0027
      9 C         142.6151  143.0261  163.5251 C.2     1  UNL1        0.0395
     10 C         140.6925  139.8716  164.9751 C.ar    1  UNL1        0.0294
     11 C         140.9840  138.6359  164.1764 C.ar    1  UNL1        0.0024
     12 C         140.0669  137.4522  164.2645 C.ar    1  UNL1        0.0025
     13 C         138.8583  137.5042  165.1514 C.ar    1  UNL1        0.0320
     14 C         138.5668  138.7400  165.9501 C.ar    1  UNL1        0.1674
     15 F         137.3581  138.7920  166.8369 F       1  UNL1       -0.2018
     16 C         139.4839  139.9237  165.8620 C.ar    1  UNL1        0.1673
     17 F         139.1923  141.1595  166.6607 F       1  UNL1       -0.2018
     18 O         142.1061  142.6530  160.3310 O.2     1  UNL1       -0.2684
     19 C         142.3026  143.9600  161.0401 C.2     1  UNL1        0.2654
     20 N         141.8903  145.2416  160.3784 N.am    1  UNL1       -0.2986
     21 H         142.0192  146.0995  160.8438 H       1  UNL1        0.1498
     22 C         141.2816  145.2159  159.0077 C.3     1  UNL1        0.1039
     23 C         141.8672  145.8312  157.7714 C.3     1  UNL1        0.0542
     24 C         140.9280  145.5660  156.6322 C.3     1  UNL1        0.1440
     25 O         139.7620  144.7869  157.1646 O.3     1  UNL1       -0.3520
     26 C         139.9805  144.5705  158.6327 C.3     1  UNL1        0.1616
@<TRIPOS>BOND
     1    18    19    2
     2    19    20   am
     3    20    22    1
     4    22    23    1
     5    23    24    1
     6    24    25    1
     7    25    26    1
     8    19     1    1
     9     1     2    2
    10     2     3    1
    11     3     4    2
    12     4     5    1
    13     5     6    1
    14     6     7    2
    15     7    10    1
    16    10    11   ar
    17    11    12   ar
    18    12    13   ar
    19    13    14   ar
    20    14    15    1
    21    14    16   ar
    22    16    17    1
    23     7     8    1
    24     8     9    2
    25    26    22    1
    26     9     1    1
    27     9     4    1
    28    16    10   ar
    29    20    21    1
@<TRIPOS>MOLECULE
*****
 26 29 0 0 0
SMALL
GASTEIGER

@<TRIPOS>ATOM
      1 C         142.9956  142.9686  170.3332 C.2     1  UNL1        0.1571
      2 N         141.8387  142.7361  171.2592 N.2     1  UNL1       -0.1436
      3 N         140.7722  142.0089  170.4951 N.2     1  UNL1       -0.1519
      4 C         141.2700  141.7919  169.0969 C.2     1  UNL1        0.0865
      5 C         140.6496  141.1309  167.9019 C.3     1  UNL1        0.0736
      6 C         141.4033  141.0629  166.6068 C.2     1  UNL1       -0.0196
      7 C         142.7774  141.6560  166.5067 C.2     1  UNL1       -0.0016
      8 C         143.3979  142.3170  167.7017 C.2     1  UNL1        0.0027
      9 C         142.6442  142.3850  168.9968 C.2     1  UNL1        0.0395
     10 C         143.5311  141.5880  165.2116 C.ar    1  UNL1        0.0294
     11 C         144.0526  140.2720  164.7155 C.ar    1  UNL1        0.0024
     12 C         144.8064  140.2041  163.4203 C.ar    1  UNL1        0.0025
     13 C         145.0385  141.4521  162.6213 C.ar    1  UNL1        0.0320
     14 C         144.5169  142.7682  163.1174 C.ar    1  UNL1        0.1674
     15 F         144.7491  144.0162  162.3184 F       1  UNL1       -0.2018
     16 C         143.7633  142.8361  164.4125 C.ar    1  UNL1        0.1673
     17 F         143.2417  144.1521  164.9087 F       1  UNL1       -0.2018
     18 O         145.5644  143.2279  170.0438 O.2     1  UNL1       -0.2684
     19 C         144.2787  143.6627  170.6823 C.2     1  UNL1        0.2654
     20 N         144.2760  144.7918  171.6699 N.am    1  UNL1       -0.2986
     21 H         143.4321  145.0772  172.0889 H       1  UNL1        0.1498
     22 C         145.5591  145.4859  172.0189 C.3     1  UNL1        0.1039
     23 C         146.6978  144.8952  172.7964 C.3     1  UNL1        0.0542
     24 C         147.7713  145.9368  172.9098 C.3     1  UNL1        0.1440
     25 O         147.2960  147.1712  172.2024 O.3     1  UNL1       -0.3520
     26 C         145.9288  146.8925  171.6518 C.3     1  UNL1        0.1616
@<TRIPOS>BOND
     1    18    19    2
     2    19    20   am
     3    20    22    1
     4    22    23    1
     5    23    24    1
     6    24    25    1
     7    25    26    1
     8    19     1    1
     9     1     2    2
    10     2     3    1
    11     3     4    2
    12     4     5    1
    13     5     6    1
    14     6     7    2
    15     7    10    1
    16    10    11   ar
    17    11    12   ar
    18    12    13   ar
    19    13    14   ar
    20    14    15    1
    21    14    16   ar
    22    16    17    1
    23     7     8    1
    24     8     9    2
    25    26    22    1
    26     9     1    1
    27     9     4    1
    28    16    10   ar
    29    20    21    1
@<TRIPOS>MOLECULE
*****
 26 29 0 0 0
SMALL
GASTEIGER

@<TRIPOS>ATOM
      1 C         138.9167  139.5090  167.7677 C.2     1  UNL1        0.1571
      2 N         137.6669  138.7233  168.0336 N.2     1  UNL1       -0.1436
      3 N         137.3813  137.8834  166.8241 N.2     1  UNL1       -0.1519
      4 C         138.4545  138.1499  165.8107 C.2     1  UNL1        0.0865
      5 C         138.6903  137.6075  164.4322 C.3     1  UNL1        0.0736
      6 C         139.8751  138.0699  163.6369 C.2     1  UNL1       -0.0196
      7 C         140.8240  139.0746  164.2201 C.2     1  UNL1       -0.0016
      8 C         140.5882  139.6169  165.5985 C.2     1  UNL1        0.0027
      9 C         139.4035  139.1546  166.3938 C.2     1  UNL1        0.0395
     10 C         142.0088  139.5369  163.4247 C.ar    1  UNL1        0.0294
     11 C         141.8723  139.7866  161.9520 C.ar    1  UNL1        0.0024
     12 C         143.0571  140.2490  161.1566 C.ar    1  UNL1        0.0025
     13 C         144.3784  140.4616  161.8340 C.ar    1  UNL1        0.0320
     14 C         144.5149  140.2118  163.3068 C.ar    1  UNL1        0.1674
     15 F         145.8362  140.4244  163.9842 F       1  UNL1       -0.2018
     16 C         143.3302  139.7495  164.1021 C.ar    1  UNL1        0.1673
     17 F         143.4667  139.4998  165.5749 F       1  UNL1       -0.2018
     18 O         139.0529  140.6192  170.1126 O.2     1  UNL1       -0.2684
     19 C         139.5657  140.4788  168.7101 C.2     1  UNL1        0.2654
     20 N         140.7279  141.3082  168.2499 N.am    1  UNL1       -0.2986
     21 H         141.0646  141.2161  167.3294 H       1  UNL1        0.1498
     22 C         141.3770  142.2780  169.1924 C.3     1  UNL1        0.1039
     23 C         142.7246  142.1186  169.8315 C.3     1  UNL1        0.0542
     24 C         142.9729  143.3196  170.6953 C.3     1  UNL1        0.1440
     25 O         141.7787  144.2212  170.5899 O.3     1  UNL1       -0.3520
     26 C         140.7924  143.5775  169.6611 C.3     1  UNL1        0.1616
@<TRIPOS>BOND
     1    18    19    2
     2    19    20   am
     3    20    22    1
     4    22    23    1
     5    23    24    1
     6    24    25    1
     7    25    26    1
     8    19     1    1
     9     1     2    2
    10     2     3    1
    11     3     4    2
    12     4     5    1
    13     5     6    1
    14     6     7    2
    15     7    10    1
    16    10    11   ar
    17    11    12   ar
    18    12    13   ar
    19    13    14   ar
    20    14    15    1
    21    14    16   ar
    22    16    17    1
    23     7     8    1
    24     8     9    2
    25    26    22    1
    26     9     1    1
    27     9     4    1
    28    16    10   ar
    29    20    21    1
