@<TRIPOS>MOLECULE
*****
 34 37 0 0 0
SMALL
GASTEIGER

@<TRIPOS>ATOM
      1 C         140.1486  139.5844  166.7331 C.ar    1  UNL1        0.1555
      2 C         140.6893  139.9162  168.0923 C.ar    1  UNL1        0.1026
      3 C         142.1539  139.7591  168.3758 C.ar    1  UNL1        0.0165
      4 C         143.0778  139.2702  167.3000 C.ar    1  UNL1        0.0379
      5 C         142.5370  138.9384  165.9407 C.ar    1  UNL1        0.1461
      6 C         141.0725  139.0955  165.6572 C.ar    1  UNL1        0.1220
      7 C         140.5319  138.7637  164.2980 C.2     1  UNL1        0.2555
      8 O         139.9420  137.4098  164.0355 O.2     1  UNL1       -0.2697
      9 N         140.5811  139.7858  163.2012 N.am    1  UNL1       -0.2660
     10 C         141.1382  141.1739  163.3141 C.3     1  UNL1        0.1236
     11 C         140.9833  141.8452  161.9817 C.ar    1  UNL1        0.0338
     12 C         141.2319  143.1181  161.2279 C.ar    1  UNL1        0.1007
     13 N         140.7328  142.9315  159.8257 N.ar    1  UNL1       -0.2113
     14 N         140.1757  141.5433  159.7129 N.ar    1  UNL1       -0.1667
     15 C         140.3306  140.8720  161.0453 C.ar    1  UNL1        0.0982
     16 C         140.0820  139.5991  161.7990 C.3     1  UNL1        0.1414
     17 C         140.7820  143.9535  158.7290 C.ar    1  UNL1        0.1639
     18 C         139.7007  143.9916  157.6901 C.ar    1  UNL1        0.0411
     19 C         139.7499  145.0137  156.5933 C.ar    1  UNL1        0.0344
     20 C         140.8805  145.9977  156.5354 C.ar    1  UNL1        0.1593
     21 F         140.9298  147.0198  155.4386 F       1  UNL1       -0.2025
     22 C         141.9619  145.9597  157.5743 C.ar    1  UNL1        0.1301
     23 N         141.9127  144.9376  158.6710 N.ar    1  UNL1       -0.2227
     24 C         137.7391  138.6127  166.7375 C.3     1  UNL1        0.2525
     25 O         138.6840  139.7415  166.4496 O.3     1  UNL1       -0.4705
     26 C         139.7653  140.4050  169.1681 C.1     1  UNL1        0.1035
     27 N         138.8414  140.8939  170.2439 N.1     1  UNL1       -0.1907
     28 O         143.4610  138.4495  164.8649 O.3     1  UNL1       -0.4701
     29 C         144.0973  139.4268  163.9215 C.3     1  UNL1        0.2600
     30 C         144.7232  140.6825  164.4521 C.3     1  UNL1        0.0566
     31 C         144.1078  139.1485  162.4477 C.3     1  UNL1        0.4340
     32 F         144.1183  138.8702  160.9737 F       1  UNL1       -0.1664
     33 F         143.2910  137.9112  162.6754 F       1  UNL1       -0.1664
     34 F         144.9246  140.3857  162.2198 F       1  UNL1       -0.1664
@<TRIPOS>BOND
     1    24    25    1
     2    25     1    1
     3     1     2   ar
     4     2    26    1
     5    26    27    3
     6     2     3   ar
     7     3     4   ar
     8     4     5   ar
     9     5    28    1
    10    28    29    1
    11    29    30    1
    12    29    31    1
    13    31    32    1
    14    31    33    1
    15    31    34    1
    16     5     6   ar
    17     6     7    1
    18     7     8    2
    19     7     9   am
    20     9    10    1
    21    10    11    1
    22    11    12   ar
    23    12    13   ar
    24    13    17    1
    25    17    18   ar
    26    18    19   ar
    27    19    20   ar
    28    20    21    1
    29    20    22   ar
    30    22    23   ar
    31    13    14   ar
    32    14    15   ar
    33    15    16    1
    34     6     1   ar
    35    16     9    1
    36    15    11   ar
    37    23    17   ar
@<TRIPOS>MOLECULE
*****
 34 37 0 0 0
SMALL
GASTEIGER

@<TRIPOS>ATOM
      1 C         141.5513  142.7985  164.5688 C.ar    1  UNL1        0.1555
      2 C         142.4393  142.5510  165.7521 C.ar    1  UNL1        0.1026
      3 C         141.9884  141.6326  166.8491 C.ar    1  UNL1        0.0165
      4 C         140.6495  140.9619  166.7629 C.ar    1  UNL1        0.0379
      5 C         139.7615  141.2095  165.5795 C.ar    1  UNL1        0.1461
      6 C         140.2123  142.1278  164.4825 C.ar    1  UNL1        0.1220
      7 C         139.3243  142.3753  163.2993 C.2     1  UNL1        0.2555
      8 O         138.3115  143.4810  163.3400 O.2     1  UNL1       -0.2697
      9 N         139.4490  141.5172  162.0754 N.am    1  UNL1       -0.2660
     10 C         140.4102  140.3807  161.8896 C.3     1  UNL1        0.1236
     11 C         140.1896  139.8060  160.5217 C.ar    1  UNL1        0.0338
     12 C         140.6474  138.7485  159.5615 C.ar    1  UNL1        0.1007
     13 N         139.8328  138.8761  158.3084 N.ar    1  UNL1       -0.2113
     14 N         138.8716  140.0127  158.4942 N.ar    1  UNL1       -0.1667
     15 C         139.0921  140.5873  159.8621 C.ar    1  UNL1        0.0982
     16 C         138.6344  141.6449  160.8223 C.3     1  UNL1        0.1414
     17 C         139.9575  138.0180  157.0845 C.ar    1  UNL1        0.1639
     18 C         141.2093  137.2262  156.8480 C.ar    1  UNL1        0.0411
     19 C         141.3341  136.3680  155.6241 C.ar    1  UNL1        0.0344
     20 C         140.2069  136.3017  154.6366 C.ar    1  UNL1        0.1593
     21 F         140.3316  135.4436  153.4126 F       1  UNL1       -0.2025
     22 C         138.9550  137.0936  154.8731 C.ar    1  UNL1        0.1301
     23 N         138.8303  137.9517  156.0970 N.ar    1  UNL1       -0.2227
     24 C         141.7477  145.1915  163.5761 C.3     1  UNL1        0.2525
     25 O         142.0021  143.7169  163.4718 O.3     1  UNL1       -0.4705
     26 C         143.7782  143.2217  165.8383 C.1     1  UNL1        0.1035
     27 N         145.1171  143.8925  165.9245 N.1     1  UNL1       -0.1907
     28 O         138.4226  140.5387  165.4933 O.3     1  UNL1       -0.4701
     29 C         138.3277  139.0430  165.5546 C.3     1  UNL1        0.2600
     30 C         137.7922  138.3753  166.7864 C.3     1  UNL1        0.0566
     31 C         138.7684  138.2149  164.3842 C.3     1  UNL1        0.4340
     32 F         139.2092  137.3867  163.2137 F       1  UNL1       -0.1664
     33 F         137.9468  139.0724  163.4680 F       1  UNL1       -0.1664
     34 F         139.5901  137.3573  165.3003 F       1  UNL1       -0.1664
@<TRIPOS>BOND
     1    24    25    1
     2    25     1    1
     3     1     2   ar
     4     2    26    1
     5    26    27    3
     6     2     3   ar
     7     3     4   ar
     8     4     5   ar
     9     5    28    1
    10    28    29    1
    11    29    30    1
    12    29    31    1
    13    31    32    1
    14    31    33    1
    15    31    34    1
    16     5     6   ar
    17     6     7    1
    18     7     8    2
    19     7     9   am
    20     9    10    1
    21    10    11    1
    22    11    12   ar
    23    12    13   ar
    24    13    17    1
    25    17    18   ar
    26    18    19   ar
    27    19    20   ar
    28    20    21    1
    29    20    22   ar
    30    22    23   ar
    31    13    14   ar
    32    14    15   ar
    33    15    16    1
    34     6     1   ar
    35    16     9    1
    36    15    11   ar
    37    23    17   ar
@<TRIPOS>MOLECULE
*****
 34 37 0 0 0
SMALL
GASTEIGER

@<TRIPOS>ATOM
      1 C         140.8214  143.0647  162.8821 C.ar    1  UNL1        0.1555
      2 C         139.6766  144.0014  163.1304 C.ar    1  UNL1        0.1026
      3 C         138.6065  143.6338  164.1151 C.ar    1  UNL1        0.0165
      4 C         138.6813  142.3292  164.8518 C.ar    1  UNL1        0.0379
      5 C         139.8263  141.3924  164.6035 C.ar    1  UNL1        0.1461
      6 C         140.8963  141.7601  163.6187 C.ar    1  UNL1        0.1220
      7 C         142.0412  140.8232  163.3706 C.2     1  UNL1        0.2555
      8 O         143.1284  140.6800  164.3940 O.2     1  UNL1       -0.2697
      9 N         142.0988  140.0297  162.0990 N.am    1  UNL1       -0.2660
     10 C         141.0901  140.0677  160.9895 C.3     1  UNL1        0.1236
     11 C         141.5432  139.1203  159.9185 C.ar    1  UNL1        0.0338
     12 C         141.1998  138.5582  158.5708 C.ar    1  UNL1        0.1007
     13 N         142.2763  137.5872  158.1855 N.ar    1  UNL1       -0.2113
     14 N         143.2850  137.5492  159.2951 N.ar    1  UNL1       -0.1667
     15 C         142.8319  138.4966  160.3661 C.ar    1  UNL1        0.0982
     16 C         143.1753  139.0587  161.7138 C.3     1  UNL1        0.1414
     17 C         142.3339  136.7937  156.9140 C.ar    1  UNL1        0.1639
     18 C         141.1154  136.6762  156.0473 C.ar    1  UNL1        0.0411
     19 C         141.1730  135.8826  154.7757 C.ar    1  UNL1        0.0344
     20 C         142.4492  135.2065  154.3708 C.ar    1  UNL1        0.1593
     21 F         142.5069  134.4129  153.0993 F       1  UNL1       -0.2025
     22 C         143.6679  135.3239  155.2376 C.ar    1  UNL1        0.1301
     23 N         143.6103  136.1175  156.5091 N.ar    1  UNL1       -0.2227
     24 C         143.1170  144.1634  162.3596 C.3     1  UNL1        0.2525
     25 O         141.8915  143.4324  161.8974 O.3     1  UNL1       -0.4705
     26 C         139.6017  145.3060  162.3937 C.1     1  UNL1        0.1035
     27 N         139.5269  146.6105  161.6571 N.1     1  UNL1       -0.1907
     28 O         139.9011  140.0879  165.3402 O.3     1  UNL1       -0.4701
     29 C         138.9685  138.9693  164.9812 C.3     1  UNL1        0.2600
     30 C         138.8180  138.5486  163.5493 C.3     1  UNL1        0.0566
     31 C         138.1862  138.2714  166.0540 C.3     1  UNL1        0.4340
     32 F         137.4040  137.5733  167.1269 F       1  UNL1       -0.1664
     33 F         137.7045  139.5968  166.5651 F       1  UNL1       -0.1664
     34 F         138.6680  136.9460  165.5430 F       1  UNL1       -0.1664
@<TRIPOS>BOND
     1    24    25    1
     2    25     1    1
     3     1     2   ar
     4     2    26    1
     5    26    27    3
     6     2     3   ar
     7     3     4   ar
     8     4     5   ar
     9     5    28    1
    10    28    29    1
    11    29    30    1
    12    29    31    1
    13    31    32    1
    14    31    33    1
    15    31    34    1
    16     5     6   ar
    17     6     7    1
    18     7     8    2
    19     7     9   am
    20     9    10    1
    21    10    11    1
    22    11    12   ar
    23    12    13   ar
    24    13    17    1
    25    17    18   ar
    26    18    19   ar
    27    19    20   ar
    28    20    21    1
    29    20    22   ar
    30    22    23   ar
    31    13    14   ar
    32    14    15   ar
    33    15    16    1
    34     6     1   ar
    35    16     9    1
    36    15    11   ar
    37    23    17   ar
@<TRIPOS>MOLECULE
*****
 34 37 0 0 0
SMALL
GASTEIGER

@<TRIPOS>ATOM
      1 C         140.1292  139.6283  166.6155 C.ar    1  UNL1        0.1555
      2 C         140.8146  139.9955  167.8982 C.ar    1  UNL1        0.1026
      3 C         142.2940  139.7938  168.0424 C.ar    1  UNL1        0.0165
      4 C         143.0879  139.2248  166.9040 C.ar    1  UNL1        0.0379
      5 C         142.4024  138.8576  165.6213 C.ar    1  UNL1        0.1461
      6 C         140.9230  139.0593  165.4770 C.ar    1  UNL1        0.1220
      7 C         140.2376  138.6921  164.1943 C.2     1  UNL1        0.2555
      8 O         139.6422  137.3256  164.0267 O.2     1  UNL1       -0.2697
      9 N         140.1475  139.6914  163.0793 N.am    1  UNL1       -0.2660
     10 C         140.6929  141.0886  163.1014 C.3     1  UNL1        0.1236
     11 C         140.3787  141.7296  161.7821 C.ar    1  UNL1        0.0338
     12 C         140.5215  142.9893  160.9804 C.ar    1  UNL1        0.1007
     13 N         139.8704  142.7669  159.6475 N.ar    1  UNL1       -0.2113
     14 N         139.3250  141.3697  159.6255 N.ar    1  UNL1       -0.1667
     15 C         139.6392  140.7286  160.9447 C.ar    1  UNL1        0.0982
     16 C         139.4963  139.4689  161.7464 C.3     1  UNL1        0.1414
     17 C         139.7803  143.7661  158.5325 C.ar    1  UNL1        0.1639
     18 C         140.3404  145.1457  158.7146 C.ar    1  UNL1        0.0411
     19 C         140.2504  146.1450  157.5996 C.ar    1  UNL1        0.0344
     20 C         139.6002  145.7648  156.3024 C.ar    1  UNL1        0.1593
     21 F         139.5101  146.7640  155.1874 F       1  UNL1       -0.2025
     22 C         139.0401  144.3852  156.1203 C.ar    1  UNL1        0.1301
     23 N         139.1301  143.3859  157.2353 N.ar    1  UNL1       -0.2227
     24 C         137.7040  138.7182  166.8167 C.3     1  UNL1        0.2525
     25 O         138.6498  139.8300  166.4712 O.3     1  UNL1       -0.4705
     26 C         140.0207  140.5644  169.0366 C.1     1  UNL1        0.1035
     27 N         139.2268  141.1334  170.1750 N.1     1  UNL1       -0.1907
     28 O         143.1963  138.2887  164.4829 O.3     1  UNL1       -0.4701
     29 C         143.8338  139.2053  163.4811 C.3     1  UNL1        0.2600
     30 C         143.5003  139.0728  162.0247 C.3     1  UNL1        0.0566
     31 C         144.8047  140.2543  163.9358 C.3     1  UNL1        0.4340
     32 F         145.7758  141.3034  164.3905 F       1  UNL1       -0.1664
     33 F         144.0096  141.3026  163.2154 F       1  UNL1       -0.1664
     34 F         145.5998  139.2061  164.6562 F       1  UNL1       -0.1664
@<TRIPOS>BOND
     1    24    25    1
     2    25     1    1
     3     1     2   ar
     4     2    26    1
     5    26    27    3
     6     2     3   ar
     7     3     4   ar
     8     4     5   ar
     9     5    28    1
    10    28    29    1
    11    29    30    1
    12    29    31    1
    13    31    32    1
    14    31    33    1
    15    31    34    1
    16     5     6   ar
    17     6     7    1
    18     7     8    2
    19     7     9   am
    20     9    10    1
    21    10    11    1
    22    11    12   ar
    23    12    13   ar
    24    13    17    1
    25    17    18   ar
    26    18    19   ar
    27    19    20   ar
    28    20    21    1
    29    20    22   ar
    30    22    23   ar
    31    13    14   ar
    32    14    15   ar
    33    15    16    1
    34     6     1   ar
    35    16     9    1
    36    15    11   ar
    37    23    17   ar
@<TRIPOS>MOLECULE
*****
 34 37 0 0 0
SMALL
GASTEIGER

@<TRIPOS>ATOM
      1 C         139.7635  140.9903  165.0758 C.ar    1  UNL1        0.1555
      2 C         140.3041  139.6346  165.4218 C.ar    1  UNL1        0.1026
      3 C         141.7593  139.4677  165.7454 C.ar    1  UNL1        0.0165
      4 C         142.6738  140.6564  165.7229 C.ar    1  UNL1        0.0379
      5 C         142.1331  142.0122  165.3769 C.ar    1  UNL1        0.1461
      6 C         140.6780  142.1791  165.0533 C.ar    1  UNL1        0.1220
      7 C         140.1374  143.5349  164.7074 C.2     1  UNL1        0.2555
      8 O         139.5675  144.4119  165.7826 O.2     1  UNL1       -0.2697
      9 N         140.1666  144.0137  163.2861 N.am    1  UNL1       -0.2660
     10 C         140.7025  143.2522  162.1101 C.3     1  UNL1        0.1236
     11 C         140.5322  144.1059  160.8886 C.ar    1  UNL1        0.0338
     12 C         140.7581  144.1629  159.4068 C.ar    1  UNL1        0.1007
     13 N         140.2566  145.4872  158.9120 N.ar    1  UNL1       -0.2113
     14 N         139.7207  146.2487  160.0881 N.ar    1  UNL1       -0.1667
     15 C         139.8911  145.3950  161.3096 C.ar    1  UNL1        0.0982
     16 C         139.6651  145.3380  162.7914 C.3     1  UNL1        0.1414
     17 C         140.2859  145.9660  157.4908 C.ar    1  UNL1        0.1639
     18 C         141.2915  145.4035  156.5304 C.ar    1  UNL1        0.0411
     19 C         141.3208  145.8823  155.1092 C.ar    1  UNL1        0.0344
     20 C         140.3444  146.9236  154.6483 C.ar    1  UNL1        0.1593
     21 F         140.3736  147.4024  153.2271 F       1  UNL1       -0.2025
     22 C         139.3387  147.4861  155.6088 C.ar    1  UNL1        0.1301
     23 N         139.3094  147.0073  157.0299 N.ar    1  UNL1       -0.2227
     24 C         137.8309  140.9972  163.3394 C.3     1  UNL1        0.2525
     25 O         138.3083  141.1573  164.7523 O.3     1  UNL1       -0.4705
     26 C         139.3896  138.4459  165.4443 C.1     1  UNL1        0.1035
     27 N         138.4750  137.2572  165.4668 N.1     1  UNL1       -0.1907
     28 O         143.0476  143.2009  165.3544 O.3     1  UNL1       -0.4701
     29 C         143.8195  143.5300  164.1110 C.3     1  UNL1        0.2600
     30 C         143.6961  144.8896  163.4895 C.3     1  UNL1        0.0566
     31 C         144.7146  142.4996  163.4891 C.3     1  UNL1        0.4340
     32 F         145.6099  141.4690  162.8672 F       1  UNL1       -0.1664
     33 F         143.8529  142.4918  162.2614 F       1  UNL1       -0.1664
     34 F         145.5764  142.5072  164.7168 F       1  UNL1       -0.1664
@<TRIPOS>BOND
     1    24    25    1
     2    25     1    1
     3     1     2   ar
     4     2    26    1
     5    26    27    3
     6     2     3   ar
     7     3     4   ar
     8     4     5   ar
     9     5    28    1
    10    28    29    1
    11    29    30    1
    12    29    31    1
    13    31    32    1
    14    31    33    1
    15    31    34    1
    16     5     6   ar
    17     6     7    1
    18     7     8    2
    19     7     9   am
    20     9    10    1
    21    10    11    1
    22    11    12   ar
    23    12    13   ar
    24    13    17    1
    25    17    18   ar
    26    18    19   ar
    27    19    20   ar
    28    20    21    1
    29    20    22   ar
    30    22    23   ar
    31    13    14   ar
    32    14    15   ar
    33    15    16    1
    34     6     1   ar
    35    16     9    1
    36    15    11   ar
    37    23    17   ar
@<TRIPOS>MOLECULE
*****
 34 37 0 0 0
SMALL
GASTEIGER

@<TRIPOS>ATOM
      1 C         140.6016  142.7337  163.3888 C.ar    1  UNL1        0.1555
      2 C         141.5123  143.0879  164.5267 C.ar    1  UNL1        0.1026
      3 C         141.3197  142.4470  165.8691 C.ar    1  UNL1        0.0165
      4 C         140.2161  141.4518  166.0737 C.ar    1  UNL1        0.0379
      5 C         139.3053  141.0975  164.9356 C.ar    1  UNL1        0.1461
      6 C         139.4980  141.7385  163.5932 C.ar    1  UNL1        0.1220
      7 C         138.5872  141.3842  162.4553 C.2     1  UNL1        0.2555
      8 O         137.1692  141.8734  162.4494 O.2     1  UNL1       -0.2697
      9 N         139.0943  140.5407  161.3233 N.am    1  UNL1       -0.2660
     10 C         140.4801  139.9819  161.1923 C.3     1  UNL1        0.1236
     11 C         140.5469  139.2037  159.9116 C.ar    1  UNL1        0.0338
     12 C         141.4446  138.3775  159.0391 C.ar    1  UNL1        0.1007
     13 N         140.6550  137.9446  157.8395 N.ar    1  UNL1       -0.2113
     14 N         139.2691  138.5035  157.9706 N.ar    1  UNL1       -0.1667
     15 C         139.2023  139.2816  159.2512 C.ar    1  UNL1        0.0982
     16 C         138.3046  140.1079  160.1237 C.3     1  UNL1        0.1414
     17 C         141.1620  137.1012  156.7075 C.ar    1  UNL1        0.1639
     18 C         140.2563  136.7611  155.5613 C.ar    1  UNL1        0.0411
     19 C         140.7633  135.9176  154.4293 C.ar    1  UNL1        0.0344
     20 C         142.1762  135.4142  154.4435 C.ar    1  UNL1        0.1593
     21 F         142.6833  134.5707  153.3116 F       1  UNL1       -0.2025
     22 C         143.0821  135.7543  155.5898 C.ar    1  UNL1        0.1301
     23 N         142.5750  136.5977  156.7218 N.ar    1  UNL1       -0.2227
     24 C         140.0703  144.6448  161.7108 C.3     1  UNL1        0.2525
     25 O         140.7942  143.3746  162.0464 O.3     1  UNL1       -0.4705
     26 C         142.6158  144.0831  164.3222 C.1     1  UNL1        0.1035
     27 N         143.7194  145.0783  164.1177 N.1     1  UNL1       -0.1907
     28 O         138.2018  140.1023  165.1401 O.3     1  UNL1       -0.4701
     29 C         138.5299  138.6680  165.4320 C.3     1  UNL1        0.2600
     30 C         139.5840  137.9620  164.6317 C.3     1  UNL1        0.0566
     31 C         137.8040  137.9397  166.5239 C.3     1  UNL1        0.4340
     32 F         137.0779  137.2114  167.6161 F       1  UNL1       -0.1664
     33 F         138.1105  136.6322  165.8558 F       1  UNL1       -0.1664
     34 F         137.4974  139.2472  167.1921 F       1  UNL1       -0.1664
@<TRIPOS>BOND
     1    24    25    1
     2    25     1    1
     3     1     2   ar
     4     2    26    1
     5    26    27    3
     6     2     3   ar
     7     3     4   ar
     8     4     5   ar
     9     5    28    1
    10    28    29    1
    11    29    30    1
    12    29    31    1
    13    31    32    1
    14    31    33    1
    15    31    34    1
    16     5     6   ar
    17     6     7    1
    18     7     8    2
    19     7     9   am
    20     9    10    1
    21    10    11    1
    22    11    12   ar
    23    12    13   ar
    24    13    17    1
    25    17    18   ar
    26    18    19   ar
    27    19    20   ar
    28    20    21    1
    29    20    22   ar
    30    22    23   ar
    31    13    14   ar
    32    14    15   ar
    33    15    16    1
    34     6     1   ar
    35    16     9    1
    36    15    11   ar
    37    23    17   ar
@<TRIPOS>MOLECULE
*****
 34 37 0 0 0
SMALL
GASTEIGER

@<TRIPOS>ATOM
      1 C         138.7261  140.6712  164.8917 C.ar    1  UNL1        0.1555
      2 C         138.9114  140.0354  166.2376 C.ar    1  UNL1        0.1026
      3 C         139.8856  140.6212  167.2162 C.ar    1  UNL1        0.0165
      4 C         140.6746  141.8429  166.8490 C.ar    1  UNL1        0.0379
      5 C         140.4894  142.4788  165.5030 C.ar    1  UNL1        0.1461
      6 C         139.5152  141.8930  164.5244 C.ar    1  UNL1        0.1220
      7 C         139.3300  142.5289  163.1786 C.2     1  UNL1        0.2555
      8 O         138.0849  143.3117  162.8839 O.2     1  UNL1       -0.2697
      9 N         140.3900  142.3820  162.1274 N.am    1  UNL1       -0.2660
     10 C         141.6811  141.6330  162.2759 C.3     1  UNL1        0.1236
     11 C         142.4339  141.7465  160.9835 C.ar    1  UNL1        0.0338
     12 C         143.6972  141.3537  160.2764 C.ar    1  UNL1        0.1007
     13 N         143.6522  141.9300  158.8923 N.ar    1  UNL1       -0.2113
     14 N         142.3610  142.6790  158.7439 N.ar    1  UNL1       -0.1667
     15 C         141.6081  142.5656  160.0363 C.ar    1  UNL1        0.0982
     16 C         140.3449  142.9584  160.7433 C.3     1  UNL1        0.1414
     17 C         144.7121  141.7832  157.8412 C.ar    1  UNL1        0.1639
     18 C         144.5643  140.7471  156.7666 C.ar    1  UNL1        0.0411
     19 C         145.6242  140.6002  155.7154 C.ar    1  UNL1        0.0344
     20 C         146.8320  141.4894  155.7388 C.ar    1  UNL1        0.1593
     21 F         147.8919  141.3426  154.6876 F       1  UNL1       -0.2025
     22 C         146.9798  142.5255  156.8134 C.ar    1  UNL1        0.1301
     23 N         145.9199  142.6724  157.8645 N.ar    1  UNL1       -0.2227
     24 C         138.2353  139.1597  162.8363 C.3     1  UNL1        0.2525
     25 O         137.7519  140.0854  163.9131 O.3     1  UNL1       -0.4705
     26 C         138.1223  138.8137  166.6048 C.1     1  UNL1        0.1035
     27 N         137.3332  137.5920  166.9720 N.1     1  UNL1       -0.1907
     28 O         141.2784  143.7005  165.1358 O.3     1  UNL1       -0.4701
     29 C         142.7481  143.5884  164.8572 C.3     1  UNL1        0.2600
     30 C         143.5534  142.5009  165.5045 C.3     1  UNL1        0.0566
     31 C         143.4125  144.5637  163.9314 C.3     1  UNL1        0.4340
     32 F         144.0769  145.5392  163.0054 F       1  UNL1       -0.1664
     33 F         144.5321  143.5905  163.7095 F       1  UNL1       -0.1664
     34 F         142.2929  145.5370  164.1532 F       1  UNL1       -0.1664
@<TRIPOS>BOND
     1    24    25    1
     2    25     1    1
     3     1     2   ar
     4     2    26    1
     5    26    27    3
     6     2     3   ar
     7     3     4   ar
     8     4     5   ar
     9     5    28    1
    10    28    29    1
    11    29    30    1
    12    29    31    1
    13    31    32    1
    14    31    33    1
    15    31    34    1
    16     5     6   ar
    17     6     7    1
    18     7     8    2
    19     7     9   am
    20     9    10    1
    21    10    11    1
    22    11    12   ar
    23    12    13   ar
    24    13    17    1
    25    17    18   ar
    26    18    19   ar
    27    19    20   ar
    28    20    21    1
    29    20    22   ar
    30    22    23   ar
    31    13    14   ar
    32    14    15   ar
    33    15    16    1
    34     6     1   ar
    35    16     9    1
    36    15    11   ar
    37    23    17   ar
@<TRIPOS>MOLECULE
*****
 34 37 0 0 0
SMALL
GASTEIGER

@<TRIPOS>ATOM
      1 C         141.1366  140.4393  166.6200 C.ar    1  UNL1        0.1555
      2 C         142.4026  140.1300  167.3626 C.ar    1  UNL1        0.1026
      3 C         143.2257  138.9367  166.9773 C.ar    1  UNL1        0.0165
      4 C         142.7829  138.0526  165.8494 C.ar    1  UNL1        0.0379
      5 C         141.5168  138.3620  165.1067 C.ar    1  UNL1        0.1461
      6 C         140.6937  139.5553  165.4920 C.ar    1  UNL1        0.1220
      7 C         139.4277  139.8645  164.7493 C.2     1  UNL1        0.2555
      8 O         138.1155  139.3412  165.2535 O.2     1  UNL1       -0.2697
      9 N         139.4739  140.6971  163.5025 N.am    1  UNL1       -0.2660
     10 C         140.7053  141.2866  162.8810 C.3     1  UNL1        0.1236
     11 C         140.2892  142.0402  161.6527 C.ar    1  UNL1        0.0338
     12 C         140.7930  142.8703  160.5094 C.ar    1  UNL1        0.1007
     13 N         139.6159  143.2597  159.6651 N.ar    1  UNL1       -0.2113
     14 N         138.3845  142.6702  160.2866 N.ar    1  UNL1       -0.1667
     15 C         138.8006  141.9166  161.5149 C.ar    1  UNL1        0.0982
     16 C         138.2967  141.0865  162.6582 C.3     1  UNL1        0.1414
     17 C         139.6621  144.0922  158.4183 C.ar    1  UNL1        0.1639
     18 C         140.3597  145.4201  158.4285 C.ar    1  UNL1        0.0411
     19 C         140.4059  146.2528  157.1817 C.ar    1  UNL1        0.0344
     20 C         139.7545  145.7575  155.9246 C.ar    1  UNL1        0.1593
     21 F         139.8006  146.5901  154.6777 F       1  UNL1       -0.2025
     22 C         139.0568  144.4295  155.9143 C.ar    1  UNL1        0.1301
     23 N         139.0106  143.5970  157.1611 N.ar    1  UNL1       -0.2227
     24 C         140.5230  142.9447  166.3093 C.3     1  UNL1        0.2525
     25 O         140.3135  141.6326  167.0053 O.3     1  UNL1       -0.4705
     26 C         142.8455  141.0141  168.4906 C.1     1  UNL1        0.1035
     27 N         143.2883  141.8981  169.6186 N.1     1  UNL1       -0.1907
     28 O         141.0739  137.4779  163.9787 O.3     1  UNL1       -0.4701
     29 C         141.4398  137.8246  162.5660 C.3     1  UNL1        0.2600
     30 C         142.8779  138.0310  162.1928 C.3     1  UNL1        0.0566
     31 C         140.3677  137.9650  161.5264 C.3     1  UNL1        0.4340
     32 F         139.2955  138.1054  160.4868 F       1  UNL1       -0.1664
     33 F         141.3769  138.5087  160.5589 F       1  UNL1       -0.1664
     34 F         139.3585  137.4214  162.4938 F       1  UNL1       -0.1664
@<TRIPOS>BOND
     1    24    25    1
     2    25     1    1
     3     1     2   ar
     4     2    26    1
     5    26    27    3
     6     2     3   ar
     7     3     4   ar
     8     4     5   ar
     9     5    28    1
    10    28    29    1
    11    29    30    1
    12    29    31    1
    13    31    32    1
    14    31    33    1
    15    31    34    1
    16     5     6   ar
    17     6     7    1
    18     7     8    2
    19     7     9   am
    20     9    10    1
    21    10    11    1
    22    11    12   ar
    23    12    13   ar
    24    13    17    1
    25    17    18   ar
    26    18    19   ar
    27    19    20   ar
    28    20    21    1
    29    20    22   ar
    30    22    23   ar
    31    13    14   ar
    32    14    15   ar
    33    15    16    1
    34     6     1   ar
    35    16     9    1
    36    15    11   ar
    37    23    17   ar
@<TRIPOS>MOLECULE
*****
 34 37 0 0 0
SMALL
GASTEIGER

@<TRIPOS>ATOM
      1 C         140.1848  140.1558  165.2273 C.ar    1  UNL1        0.1555
      2 C         139.6567  138.7643  165.4141 C.ar    1  UNL1        0.1026
      3 C         140.2880  137.6178  164.6811 C.ar    1  UNL1        0.0165
      4 C         141.4473  137.8628  163.7614 C.ar    1  UNL1        0.0379
      5 C         141.9753  139.2544  163.5746 C.ar    1  UNL1        0.1461
      6 C         141.3441  140.4009  164.3076 C.ar    1  UNL1        0.1220
      7 C         141.8722  141.7923  164.1207 C.2     1  UNL1        0.2555
      8 O         142.6678  142.4454  165.2119 O.2     1  UNL1       -0.2697
      9 N         141.6047  142.5308  162.8428 N.am    1  UNL1       -0.2660
     10 C         140.8293  142.0098  161.6692 C.3     1  UNL1        0.1236
     11 C         140.8111  143.0769  160.6152 C.ar    1  UNL1        0.0338
     12 C         140.3206  143.4145  159.2384 C.ar    1  UNL1        0.1007
     13 N         140.7816  144.8035  158.9096 N.ar    1  UNL1       -0.2113
     14 N         141.5571  145.3244  160.0833 N.ar    1  UNL1       -0.1667
     15 C         141.5753  144.2573  161.1373 C.ar    1  UNL1        0.0982
     16 C         142.0658  143.9198  162.5141 C.3     1  UNL1        0.1414
     17 C         140.5142  145.5419  157.6317 C.ar    1  UNL1        0.1639
     18 C         141.2638  145.1783  156.3844 C.ar    1  UNL1        0.0411
     19 C         140.9963  145.9167  155.1064 C.ar    1  UNL1        0.0344
     20 C         139.9793  147.0188  155.0758 C.ar    1  UNL1        0.1593
     21 F         139.7118  147.7573  153.7979 F       1  UNL1       -0.2025
     22 C         139.2297  147.3825  156.3232 C.ar    1  UNL1        0.1301
     23 N         139.4971  146.6441  157.6011 N.ar    1  UNL1       -0.2227
     24 C         140.0573  141.6928  167.3180 C.3     1  UNL1        0.2525
     25 O         139.5535  141.3022  165.9602 O.3     1  UNL1       -0.4705
     26 C         138.4974  138.5193  166.3338 C.1     1  UNL1        0.1035
     27 N         137.3381  138.2742  167.2536 N.1     1  UNL1       -0.1907
     28 O         143.1347  139.4994  162.6549 O.3     1  UNL1       -0.4701
     29 C         144.4157  140.0616  163.1962 C.3     1  UNL1        0.2600
     30 C         145.1046  139.3868  164.3451 C.3     1  UNL1        0.0566
     31 C         145.0079  141.2985  162.5886 C.3     1  UNL1        0.4340
     32 F         145.6002  142.5356  161.9810 F       1  UNL1       -0.1664
     33 F         144.1896  141.0821  161.3502 F       1  UNL1       -0.1664
     34 F         145.8262  141.5150  163.8269 F       1  UNL1       -0.1664
@<TRIPOS>BOND
     1    24    25    1
     2    25     1    1
     3     1     2   ar
     4     2    26    1
     5    26    27    3
     6     2     3   ar
     7     3     4   ar
     8     4     5   ar
     9     5    28    1
    10    28    29    1
    11    29    30    1
    12    29    31    1
    13    31    32    1
    14    31    33    1
    15    31    34    1
    16     5     6   ar
    17     6     7    1
    18     7     8    2
    19     7     9   am
    20     9    10    1
    21    10    11    1
    22    11    12   ar
    23    12    13   ar
    24    13    17    1
    25    17    18   ar
    26    18    19   ar
    27    19    20   ar
    28    20    21    1
    29    20    22   ar
    30    22    23   ar
    31    13    14   ar
    32    14    15   ar
    33    15    16    1
    34     6     1   ar
    35    16     9    1
    36    15    11   ar
    37    23    17   ar
