@<TRIPOS>MOLECULE
*****
 34 37 0 0 0
SMALL
GASTEIGER

@<TRIPOS>ATOM
      1 C         138.8501  140.2655  158.0165 C.2     1  UNL1        0.0099
      2 C         139.8535  139.3317  157.4072 C.2     1  UNL1       -0.0400
      3 C         140.7202  138.4826  158.2892 C.3     1  UNL1        0.0394
      4 C         141.7236  137.5489  157.6799 C.3     1  UNL1        0.0767
      5 N         141.8603  137.4642  156.1885 N.3     1  UNL1       -0.2683
      6 C         140.9937  138.3133  155.3065 C.3     1  UNL1        0.0767
      7 C         139.9903  139.2471  155.9158 C.3     1  UNL1        0.0394
      8 C         138.4398  140.5195  162.4905 C.ar    1  UNL1        0.0536
      9 C         137.4061  139.7923  161.6827 C.ar    1  UNL1        0.0045
     10 C         137.5429  139.7077  160.1913 C.ar    1  UNL1        0.0002
     11 C         138.7134  140.3501  159.5078 C.ar    1  UNL1        0.0008
     12 C         139.7471  141.0773  160.3157 C.ar    1  UNL1        0.0002
     13 C         139.6103  141.1620  161.8071 C.ar    1  UNL1        0.0045
     14 N         138.5148  139.3818  164.8250 N.am    1  UNL1       -0.2761
     15 C         138.3030  140.6041  163.9819 C.2     1  UNL1        0.2490
     16 O         137.9545  141.9111  164.6301 O.2     1  UNL1       -0.2699
     17 C         137.6426  138.3941  167.0642 C.3     1  UNL1        0.0233
     18 C         138.3781  139.4665  166.3164 C.3     1  UNL1        0.0938
     19 C         138.8634  138.0747  164.1769 C.3     1  UNL1        0.0938
     20 C         140.2932  137.6255  164.1160 C.3     1  UNL1        0.0233
     21 C         137.9835  141.1145  157.1345 C.ar    1  UNL1        0.0807
     22 C         138.4004  142.5157  156.7981 C.ar    1  UNL1        0.0191
     23 C         137.5337  143.3647  155.9161 C.ar    1  UNL1        0.0031
     24 C         136.2502  142.8127  155.3703 C.ar    1  UNL1        0.0207
     25 C         135.8333  141.4116  155.7066 C.ar    1  UNL1        0.0988
     26 N         136.7000  140.5625  156.5887 N.ar    1  UNL1       -0.2439
     27 C         142.8638  136.5304  155.5792 C.3     1  UNL1        0.0992
     28 C         142.7978  135.0615  155.8754 C.ar    1  UNL1       -0.0060
     29 C         141.8011  134.1966  155.1623 C.ar    1  UNL1       -0.0006
     30 C         141.7351  132.7276  155.4585 C.ar    1  UNL1        0.0294
     31 C         142.6659  132.1235  156.4678 C.ar    1  UNL1        0.1401
     32 F         142.5999  130.6545  156.7640 F       1  UNL1       -0.2042
     33 C         143.6626  132.9883  157.1809 C.ar    1  UNL1        0.0294
     34 C         143.7286  134.4574  156.8847 C.ar    1  UNL1       -0.0006
@<TRIPOS>BOND
     1    17    18    1
     2    18    14    1
     3    14    19    1
     4    19    20    1
     5    14    15   am
     6    15    16    2
     7    15     8    1
     8     8     9   ar
     9     9    10   ar
    10    10    11   ar
    11    11     1    1
    12     1     2    2
    13     2     3    1
    14     3     4    1
    15     4     5    1
    16     5    27    1
    17    27    28    1
    18    28    29   ar
    19    29    30   ar
    20    30    31   ar
    21    31    32    1
    22    31    33   ar
    23    33    34   ar
    24     5     6    1
    25     6     7    1
    26     1    21    1
    27    21    22   ar
    28    22    23   ar
    29    23    24   ar
    30    24    25   ar
    31    25    26   ar
    32    11    12   ar
    33    12    13   ar
    34    13     8   ar
    35     7     2    1
    36    26    21   ar
    37    34    28   ar
@<TRIPOS>MOLECULE
*****
 34 37 0 0 0
SMALL
GASTEIGER

@<TRIPOS>ATOM
      1 C         142.9194  138.6881  157.6615 C.2     1  UNL1        0.0099
      2 C         143.7463  139.7444  156.9904 C.2     1  UNL1       -0.0400
      3 C         144.1347  140.9830  157.7421 C.3     1  UNL1        0.0394
      4 C         144.9616  142.0393  157.0709 C.3     1  UNL1        0.0767
      5 N         145.4001  141.8570  155.6481 N.3     1  UNL1       -0.2683
      6 C         145.0118  140.6184  154.8964 C.3     1  UNL1        0.0767
      7 C         144.1848  139.5621  155.5675 C.3     1  UNL1        0.0394
      8 C         141.6038  139.2349  161.9300 C.ar    1  UNL1        0.0536
      9 C         140.9639  140.0411  160.8388 C.ar    1  UNL1        0.0045
     10 C         141.4024  139.8588  159.4160 C.ar    1  UNL1        0.0002
     11 C         142.4808  138.8704  159.0843 C.ar    1  UNL1        0.0008
     12 C         143.1207  138.0642  160.1755 C.ar    1  UNL1        0.0002
     13 C         142.6821  138.2465  161.5983 C.ar    1  UNL1        0.0045
     14 N         140.0177  138.6160  163.8925 N.am    1  UNL1       -0.2761
     15 C         141.1652  139.4172  163.3528 C.2     1  UNL1        0.2490
     16 O         141.8742  140.4007  164.2360 O.2     1  UNL1       -0.2699
     17 C         138.3118  139.5406  165.6203 C.3     1  UNL1        0.0233
     18 C         139.5792  138.7983  165.3153 C.3     1  UNL1        0.0938
     19 C         139.3087  137.6324  163.0093 C.3     1  UNL1        0.0938
     20 C         138.1377  138.0749  162.1829 C.3     1  UNL1        0.0233
     21 C         142.5310  137.4495  156.9098 C.ar    1  UNL1        0.0807
     22 C         141.1822  137.3587  156.2598 C.ar    1  UNL1        0.0191
     23 C         140.7938  136.1200  155.5081 C.ar    1  UNL1        0.0031
     24 C         141.7542  134.9724  155.4063 C.ar    1  UNL1        0.0207
     25 C         143.1031  135.0633  156.0563 C.ar    1  UNL1        0.0988
     26 N         143.4914  136.3018  156.8080 N.ar    1  UNL1       -0.2439
     27 C         146.2271  142.9133  154.9770 C.3     1  UNL1        0.0992
     28 C         147.6840  142.6713  154.7148 C.ar    1  UNL1       -0.0060
     29 C         148.3295  143.2396  153.4858 C.ar    1  UNL1       -0.0006
     30 C         149.7864  142.9975  153.2236 C.ar    1  UNL1        0.0294
     31 C         150.5979  142.1871  154.1905 C.ar    1  UNL1        0.1401
     32 F         152.0548  141.9450  153.9283 F       1  UNL1       -0.2042
     33 C         149.9524  141.6188  155.4195 C.ar    1  UNL1        0.0294
     34 C         148.4954  141.8609  155.6816 C.ar    1  UNL1       -0.0006
@<TRIPOS>BOND
     1    17    18    1
     2    18    14    1
     3    14    19    1
     4    19    20    1
     5    14    15   am
     6    15    16    2
     7    15     8    1
     8     8     9   ar
     9     9    10   ar
    10    10    11   ar
    11    11     1    1
    12     1     2    2
    13     2     3    1
    14     3     4    1
    15     4     5    1
    16     5    27    1
    17    27    28    1
    18    28    29   ar
    19    29    30   ar
    20    30    31   ar
    21    31    32    1
    22    31    33   ar
    23    33    34   ar
    24     5     6    1
    25     6     7    1
    26     1    21    1
    27    21    22   ar
    28    22    23   ar
    29    23    24   ar
    30    24    25   ar
    31    25    26   ar
    32    11    12   ar
    33    12    13   ar
    34    13     8   ar
    35     7     2    1
    36    26    21   ar
    37    34    28   ar
@<TRIPOS>MOLECULE
*****
 34 37 0 0 0
SMALL
GASTEIGER

@<TRIPOS>ATOM
      1 C         142.6217  137.6000  157.1608 C.2     1  UNL1        0.0099
      2 C         143.3655  138.6985  156.4608 C.2     1  UNL1       -0.0400
      3 C         143.3817  140.0816  157.0413 C.3     1  UNL1        0.0394
      4 C         144.1255  141.1801  156.3413 C.3     1  UNL1        0.0767
      5 N         144.8531  140.8956  155.0608 N.3     1  UNL1       -0.2683
      6 C         144.8368  139.5126  154.4803 C.3     1  UNL1        0.0767
      7 C         144.0930  138.4140  155.1803 C.3     1  UNL1        0.0394
      8 C         140.4390  138.4534  161.0024 C.ar    1  UNL1        0.0536
      9 C         139.7361  138.6188  159.6877 C.ar    1  UNL1        0.0045
     10 C         140.4636  138.3343  158.4072 C.ar    1  UNL1        0.0002
     11 C         141.8941  137.8845  158.4413 C.ar    1  UNL1        0.0008
     12 C         142.5971  137.7191  159.7560 C.ar    1  UNL1        0.0002
     13 C         141.8695  138.0036  161.0366 C.ar    1  UNL1        0.0045
     14 N         139.7714  140.1077  162.8912 N.am    1  UNL1       -0.2761
     15 C         139.7115  138.7379  162.2829 C.2     1  UNL1        0.2490
     16 O         138.9240  137.6526  162.9552 O.2     1  UNL1       -0.2699
     17 C         138.1254  141.5745  164.2658 C.3     1  UNL1        0.0233
     18 C         139.0438  140.3922  164.1717 C.3     1  UNL1        0.0938
     19 C         140.5588  141.1931  162.2189 C.3     1  UNL1        0.0938
     20 C         141.9685  141.4730  162.6485 C.3     1  UNL1        0.0233
     21 C         142.6055  136.2170  156.5803 C.ar    1  UNL1        0.0807
     22 C         141.4954  135.8027  155.6605 C.ar    1  UNL1        0.0191
     23 C         141.4792  134.4196  155.0800 C.ar    1  UNL1        0.0031
     24 C         142.5731  133.4509  155.4193 C.ar    1  UNL1        0.0207
     25 C         143.6832  133.8653  156.3391 C.ar    1  UNL1        0.0988
     26 N         143.6994  135.2483  156.9196 N.ar    1  UNL1       -0.2439
     27 C         145.5969  141.9942  154.3608 C.3     1  UNL1        0.0992
     28 C         147.0962  142.0241  154.3938 C.ar    1  UNL1       -0.0060
     29 C         147.8676  142.3401  153.1468 C.ar    1  UNL1       -0.0006
     30 C         149.3669  142.3700  153.1797 C.ar    1  UNL1        0.0294
     31 C         150.0949  142.0840  154.4598 C.ar    1  UNL1        0.1401
     32 F         151.5942  142.1140  154.4927 F       1  UNL1       -0.2042
     33 C         149.3234  141.7681  155.7068 C.ar    1  UNL1        0.0294
     34 C         147.8240  141.7381  155.6737 C.ar    1  UNL1       -0.0006
@<TRIPOS>BOND
     1    17    18    1
     2    18    14    1
     3    14    19    1
     4    19    20    1
     5    14    15   am
     6    15    16    2
     7    15     8    1
     8     8     9   ar
     9     9    10   ar
    10    10    11   ar
    11    11     1    1
    12     1     2    2
    13     2     3    1
    14     3     4    1
    15     4     5    1
    16     5    27    1
    17    27    28    1
    18    28    29   ar
    19    29    30   ar
    20    30    31   ar
    21    31    32    1
    22    31    33   ar
    23    33    34   ar
    24     5     6    1
    25     6     7    1
    26     1    21    1
    27    21    22   ar
    28    22    23   ar
    29    23    24   ar
    30    24    25   ar
    31    25    26   ar
    32    11    12   ar
    33    12    13   ar
    34    13     8   ar
    35     7     2    1
    36    26    21   ar
    37    34    28   ar
@<TRIPOS>MOLECULE
*****
 34 37 0 0 0
SMALL
GASTEIGER

@<TRIPOS>ATOM
      1 C         139.5410  144.4020  156.8071 C.2     1  UNL1        0.0099
      2 C         138.5707  143.3220  156.4301 C.2     1  UNL1       -0.0400
      3 C         138.3284  142.1724  157.3628 C.3     1  UNL1        0.0394
      4 C         137.3581  141.0925  156.9859 C.3     1  UNL1        0.0767
      5 N         136.6301  141.1620  155.6762 N.3     1  UNL1       -0.2683
      6 C         136.8723  142.3115  154.7436 C.3     1  UNL1        0.0767
      7 C         137.8427  143.3915  155.1205 C.3     1  UNL1        0.0394
      8 C         141.7251  144.1934  160.7360 C.ar    1  UNL1        0.0536
      9 C         141.9748  143.1548  159.6830 C.ar    1  UNL1        0.0045
     10 C         141.2467  143.2243  158.3734 C.ar    1  UNL1        0.0002
     11 C         140.2690  144.3325  158.1167 C.ar    1  UNL1        0.0008
     12 C         140.0194  145.3712  159.1697 C.ar    1  UNL1        0.0002
     13 C         140.7474  145.3016  160.4793 C.ar    1  UNL1        0.0045
     14 N         141.7836  143.5210  163.2448 N.am    1  UNL1       -0.2761
     15 C         142.4531  144.1239  162.0456 C.2     1  UNL1        0.2490
     16 O         143.8507  144.6573  162.1560 O.2     1  UNL1       -0.2699
     17 C         142.1933  142.3596  165.5325 C.3     1  UNL1        0.0233
     18 C         142.5116  143.4515  164.5545 C.3     1  UNL1        0.0938
     19 C         140.3860  142.9876  163.1345 C.3     1  UNL1        0.0938
     20 C         139.2302  143.8035  163.6328 C.3     1  UNL1        0.0233
     21 C         139.7832  145.5515  155.8744 C.ar    1  UNL1        0.0807
     22 C         139.0042  146.8234  156.0335 C.ar    1  UNL1        0.0191
     23 C         139.2465  147.9730  155.1007 C.ar    1  UNL1        0.0031
     24 C         140.2678  147.8505  154.0090 C.ar    1  UNL1        0.0207
     25 C         141.0468  146.5786  153.8500 C.ar    1  UNL1        0.0988
     26 N         140.8046  145.4291  154.7826 N.ar    1  UNL1       -0.2439
     27 C         135.6598  140.0819  155.2993 C.3     1  UNL1        0.0992
     28 C         134.2119  140.2121  155.6688 C.ar    1  UNL1       -0.0060
     29 C         133.6137  139.2938  156.6929 C.ar    1  UNL1       -0.0006
     30 C         132.1658  139.4240  157.0625 C.ar    1  UNL1        0.0294
     31 C         131.3160  140.4725  156.4079 C.ar    1  UNL1        0.1401
     32 F         129.8681  140.6027  156.7774 F       1  UNL1       -0.2042
     33 C         131.9142  141.3909  155.3838 C.ar    1  UNL1        0.0294
     34 C         133.3622  141.2607  155.0143 C.ar    1  UNL1       -0.0006
@<TRIPOS>BOND
     1    17    18    1
     2    18    14    1
     3    14    19    1
     4    19    20    1
     5    14    15   am
     6    15    16    2
     7    15     8    1
     8     8     9   ar
     9     9    10   ar
    10    10    11   ar
    11    11     1    1
    12     1     2    2
    13     2     3    1
    14     3     4    1
    15     4     5    1
    16     5    27    1
    17    27    28    1
    18    28    29   ar
    19    29    30   ar
    20    30    31   ar
    21    31    32    1
    22    31    33   ar
    23    33    34   ar
    24     5     6    1
    25     6     7    1
    26     1    21    1
    27    21    22   ar
    28    22    23   ar
    29    23    24   ar
    30    24    25   ar
    31    25    26   ar
    32    11    12   ar
    33    12    13   ar
    34    13     8   ar
    35     7     2    1
    36    26    21   ar
    37    34    28   ar
@<TRIPOS>MOLECULE
*****
 34 37 0 0 0
SMALL
GASTEIGER

@<TRIPOS>ATOM
      1 C         141.9661  139.1229  157.7124 C.2     1  UNL1        0.0099
      2 C         142.0517  139.0763  159.2092 C.2     1  UNL1       -0.0400
      3 C         141.6963  140.2880  160.0188 C.3     1  UNL1        0.0394
      4 C         141.7818  140.2415  161.5156 C.3     1  UNL1        0.0767
      5 N         142.2228  138.9832  162.2029 N.3     1  UNL1       -0.2683
      6 C         142.5782  137.7715  161.3933 C.3     1  UNL1        0.0767
      7 C         142.4926  137.8180  159.8965 C.3     1  UNL1        0.0394
      8 C         140.6433  142.8977  155.6506 C.ar    1  UNL1        0.0536
      9 C         142.1051  142.5910  155.7882 C.ar    1  UNL1        0.0045
     10 C         142.5461  141.3327  156.4755 C.ar    1  UNL1        0.0002
     11 C         141.5252  140.3811  157.0251 C.ar    1  UNL1        0.0008
     12 C         140.0634  140.6878  156.8876 C.ar    1  UNL1        0.0002
     13 C         139.6224  141.9461  156.2003 C.ar    1  UNL1        0.0045
     14 N         140.1376  145.4449  155.7278 N.am    1  UNL1       -0.2761
     15 C         140.2024  144.1559  154.9634 C.2     1  UNL1        0.2490
     16 O         139.8261  144.1253  153.5117 O.2     1  UNL1       -0.2699
     17 C         139.0113  147.7842  155.8227 C.3     1  UNL1        0.0233
     18 C         139.6967  146.7032  155.0406 C.3     1  UNL1        0.0938
     19 C         140.5139  145.4756  157.1796 C.3     1  UNL1        0.0938
     20 C         141.9007  145.8766  157.5866 C.3     1  UNL1        0.0233
     21 C         142.3215  137.9112  156.9029 C.ar    1  UNL1        0.0807
     22 C         141.2632  136.9089  156.5488 C.ar    1  UNL1        0.0191
     23 C         141.6186  135.6971  155.7392 C.ar    1  UNL1        0.0031
     24 C         143.0324  135.4877  155.2837 C.ar    1  UNL1        0.0207
     25 C         144.0907  136.4900  155.6378 C.ar    1  UNL1        0.0988
     26 N         143.7353  137.7017  156.4474 N.ar    1  UNL1       -0.2439
     27 C         142.3083  138.9367  163.6998 C.3     1  UNL1        0.0992
     28 C         141.0551  138.8621  164.5207 C.ar    1  UNL1       -0.0060
     29 C         140.0921  137.7300  164.3180 C.ar    1  UNL1       -0.0006
     30 C         138.8389  137.6554  165.1389 C.ar    1  UNL1        0.0294
     31 C         138.5487  138.7128  166.1625 C.ar    1  UNL1        0.1401
     32 F         137.2955  138.6382  166.9834 F       1  UNL1       -0.2042
     33 C         139.5117  139.8449  166.3651 C.ar    1  UNL1        0.0294
     34 C         140.7649  139.9195  165.5442 C.ar    1  UNL1       -0.0006
@<TRIPOS>BOND
     1    17    18    1
     2    18    14    1
     3    14    19    1
     4    19    20    1
     5    14    15   am
     6    15    16    2
     7    15     8    1
     8     8     9   ar
     9     9    10   ar
    10    10    11   ar
    11    11     1    1
    12     1     2    2
    13     2     3    1
    14     3     4    1
    15     4     5    1
    16     5    27    1
    17    27    28    1
    18    28    29   ar
    19    29    30   ar
    20    30    31   ar
    21    31    32    1
    22    31    33   ar
    23    33    34   ar
    24     5     6    1
    25     6     7    1
    26     1    21    1
    27    21    22   ar
    28    22    23   ar
    29    23    24   ar
    30    24    25   ar
    31    25    26   ar
    32    11    12   ar
    33    12    13   ar
    34    13     8   ar
    35     7     2    1
    36    26    21   ar
    37    34    28   ar
@<TRIPOS>MOLECULE
*****
 34 37 0 0 0
SMALL
GASTEIGER

@<TRIPOS>ATOM
      1 C         141.3236  140.8928  158.5361 C.2     1  UNL1        0.0099
      2 C         141.9996  139.7376  157.8590 C.2     1  UNL1       -0.0400
      3 C         142.0231  138.3907  158.5189 C.3     1  UNL1        0.0394
      4 C         142.6991  137.2355  157.8418 C.3     1  UNL1        0.0767
      5 N         143.3518  137.4272  156.5049 N.3     1  UNL1       -0.2683
      6 C         143.3283  138.7740  155.8450 C.3     1  UNL1        0.0767
      7 C         142.6523  139.9293  156.5221 C.3     1  UNL1        0.0394
      8 C         139.3657  140.3178  162.5469 C.ar    1  UNL1        0.0536
      9 C         138.5985  140.0323  161.2899 C.ar    1  UNL1        0.0045
     10 C         139.2511  140.2240  159.9530 C.ar    1  UNL1        0.0002
     11 C         140.6709  140.7011  159.8730 C.ar    1  UNL1        0.0008
     12 C         141.4381  140.9865  161.1300 C.ar    1  UNL1        0.0002
     13 C         140.7855  140.7949  162.4669 C.ar    1  UNL1        0.0045
     14 N         138.8737  138.8277  164.6175 N.am    1  UNL1       -0.2761
     15 C         138.7130  140.1261  163.8838 C.2     1  UNL1        0.2490
     16 O         137.8998  141.2327  164.4869 O.2     1  UNL1       -0.2699
     17 C         138.7938  139.3012  167.1709 C.3     1  UNL1        0.0233
     18 C         138.2210  138.6361  165.9544 C.3     1  UNL1        0.0938
     19 C         139.6870  137.7210  164.0144 C.3     1  UNL1        0.0938
     20 C         141.0871  137.4731  164.4920 C.3     1  UNL1        0.0233
     21 C         141.3001  142.2396  157.8763 C.ar    1  UNL1        0.0807
     22 C         142.3538  143.2550  158.2064 C.ar    1  UNL1        0.0191
     23 C         142.3303  144.6019  157.5465 C.ar    1  UNL1        0.0031
     24 C         141.2533  144.9334  156.5566 C.ar    1  UNL1        0.0207
     25 C         140.1997  143.9180  156.2265 C.ar    1  UNL1        0.0988
     26 N         140.2231  142.5712  156.8863 N.ar    1  UNL1       -0.2439
     27 C         144.0278  136.2719  155.8278 C.3     1  UNL1        0.0992
     28 C         143.3353  134.9444  155.7398 C.ar    1  UNL1       -0.0060
     29 C         142.3053  134.7048  154.6760 C.ar    1  UNL1       -0.0006
     30 C         141.6127  133.3772  154.5880 C.ar    1  UNL1        0.0294
     31 C         141.9501  132.2891  155.5639 C.ar    1  UNL1        0.1401
     32 F         141.2575  130.9615  155.4759 F       1  UNL1       -0.2042
     33 C         142.9800  132.5287  156.6278 C.ar    1  UNL1        0.0294
     34 C         143.6726  133.8564  156.7157 C.ar    1  UNL1       -0.0006
@<TRIPOS>BOND
     1    17    18    1
     2    18    14    1
     3    14    19    1
     4    19    20    1
     5    14    15   am
     6    15    16    2
     7    15     8    1
     8     8     9   ar
     9     9    10   ar
    10    10    11   ar
    11    11     1    1
    12     1     2    2
    13     2     3    1
    14     3     4    1
    15     4     5    1
    16     5    27    1
    17    27    28    1
    18    28    29   ar
    19    29    30   ar
    20    30    31   ar
    21    31    32    1
    22    31    33   ar
    23    33    34   ar
    24     5     6    1
    25     6     7    1
    26     1    21    1
    27    21    22   ar
    28    22    23   ar
    29    23    24   ar
    30    24    25   ar
    31    25    26   ar
    32    11    12   ar
    33    12    13   ar
    34    13     8   ar
    35     7     2    1
    36    26    21   ar
    37    34    28   ar
@<TRIPOS>MOLECULE
*****
 34 37 0 0 0
SMALL
GASTEIGER

@<TRIPOS>ATOM
      1 C         143.2296  138.9864  157.5980 C.2     1  UNL1        0.0099
      2 C         143.1444  138.8856  159.0921 C.2     1  UNL1       -0.0400
      3 C         142.6006  137.6417  159.7302 C.3     1  UNL1        0.0394
      4 C         142.5154  137.5409  161.2244 C.3     1  UNL1        0.0767
      5 N         142.9741  138.6840  162.0805 N.3     1  UNL1       -0.2683
      6 C         143.5180  139.9278  161.4425 C.3     1  UNL1        0.0767
      7 C         143.6031  140.0287  159.9483 C.3     1  UNL1        0.0394
      8 C         141.8535  135.5572  155.0295 C.ar    1  UNL1        0.0536
      9 C         143.3063  135.9283  155.0697 C.ar    1  UNL1        0.0045
     10 C         143.7650  137.0714  155.9258 C.ar    1  UNL1        0.0002
     11 C         142.7709  137.8433  156.7418 C.ar    1  UNL1        0.0008
     12 C         141.3181  137.4722  156.7016 C.ar    1  UNL1        0.0002
     13 C         140.8594  136.3291  155.8455 C.ar    1  UNL1        0.0045
     14 N         141.5459  133.0038  154.6613 N.am    1  UNL1       -0.2761
     15 C         141.3948  134.4141  154.1733 C.2     1  UNL1        0.2490
     16 O         140.7851  134.6814  152.8292 O.2     1  UNL1       -0.2699
     17 C         142.0230  131.2511  152.8037 C.3     1  UNL1        0.0233
     18 C         141.0872  131.8608  153.8051 C.3     1  UNL1        0.0938
     19 C         142.1557  132.7365  156.0055 C.3     1  UNL1        0.0938
     20 C         143.6068  132.3716  156.1116 C.3     1  UNL1        0.0233
     21 C         143.7734  140.2302  156.9600 C.ar    1  UNL1        0.0807
     22 C         142.8353  141.2888  156.4608 C.ar    1  UNL1        0.0191
     23 C         143.3792  142.5327  155.8227 C.ar    1  UNL1        0.0031
     24 C         144.8612  142.7179  155.6840 C.ar    1  UNL1        0.0207
     25 C         145.7994  141.6593  156.1833 C.ar    1  UNL1        0.0988
     26 N         145.2555  140.4155  156.8212 N.ar    1  UNL1       -0.2439
     27 C         142.8889  138.5832  163.5748 C.3     1  UNL1        0.0992
     28 C         141.5606  138.7071  164.2603 C.ar    1  UNL1       -0.0060
     29 C         141.1635  140.0059  164.8972 C.ar    1  UNL1       -0.0006
     30 C         139.8352  140.1298  165.5828 C.ar    1  UNL1        0.0294
     31 C         138.9038  138.9549  165.6315 C.ar    1  UNL1        0.1401
     32 F         137.5754  139.0789  166.3170 F       1  UNL1       -0.2042
     33 C         139.3008  137.6562  164.9946 C.ar    1  UNL1        0.0294
     34 C         140.6292  137.5323  164.3090 C.ar    1  UNL1       -0.0006
@<TRIPOS>BOND
     1    17    18    1
     2    18    14    1
     3    14    19    1
     4    19    20    1
     5    14    15   am
     6    15    16    2
     7    15     8    1
     8     8     9   ar
     9     9    10   ar
    10    10    11   ar
    11    11     1    1
    12     1     2    2
    13     2     3    1
    14     3     4    1
    15     4     5    1
    16     5    27    1
    17    27    28    1
    18    28    29   ar
    19    29    30   ar
    20    30    31   ar
    21    31    32    1
    22    31    33   ar
    23    33    34   ar
    24     5     6    1
    25     6     7    1
    26     1    21    1
    27    21    22   ar
    28    22    23   ar
    29    23    24   ar
    30    24    25   ar
    31    25    26   ar
    32    11    12   ar
    33    12    13   ar
    34    13     8   ar
    35     7     2    1
    36    26    21   ar
    37    34    28   ar
@<TRIPOS>MOLECULE
*****
 34 37 0 0 0
SMALL
GASTEIGER

@<TRIPOS>ATOM
      1 C         143.1946  138.7283  156.9639 C.2     1  UNL1        0.0099
      2 C         143.2069  138.8345  158.4601 C.2     1  UNL1       -0.0400
      3 C         142.8249  137.6513  159.2992 C.3     1  UNL1        0.0394
      4 C         142.8372  137.7575  160.7953 C.3     1  UNL1        0.0767
      5 N         143.2316  139.0469  161.4525 N.3     1  UNL1       -0.2683
      6 C         143.6135  140.2302  160.6134 C.3     1  UNL1        0.0767
      7 C         143.6012  140.1240  159.1172 C.3     1  UNL1        0.0394
      8 C         142.0117  134.8600  154.9925 C.ar    1  UNL1        0.0536
      9 C         140.9591  135.7632  155.5636 C.ar    1  UNL1        0.0045
     10 C         141.3534  137.0527  156.2208 C.ar    1  UNL1        0.0002
     11 C         142.8003  137.4389  156.3068 C.ar    1  UNL1        0.0008
     12 C         143.8528  136.5356  155.7356 C.ar    1  UNL1        0.0002
     13 C         143.4585  135.2461  155.0785 C.ar    1  UNL1        0.0045
     14 N         141.8433  132.2679  155.0438 N.am    1  UNL1       -0.2761
     15 C         141.6173  133.5705  154.3354 C.2     1  UNL1        0.2490
     16 O         140.9970  133.5837  152.9697 O.2     1  UNL1       -0.2699
     17 C         140.0401  130.4771  154.5039 C.3     1  UNL1        0.0233
     18 C         141.4490  130.9784  154.3867 C.3     1  UNL1        0.0938
     19 C         142.4637  132.2546  156.4095 C.3     1  UNL1        0.0938
     20 C         143.9009  131.8591  156.5767 C.3     1  UNL1        0.0233
     21 C         143.5766  139.9115  156.1249 C.ar    1  UNL1        0.0807
     22 C         145.0042  140.1053  155.7073 C.ar    1  UNL1        0.0191
     23 C         145.3862  141.2886  154.8682 C.ar    1  UNL1        0.0031
     24 C         144.3406  142.2781  154.4468 C.ar    1  UNL1        0.0207
     25 C         142.9130  142.0843  154.8645 C.ar    1  UNL1        0.0988
     26 N         142.5310  140.9011  155.7035 N.ar    1  UNL1       -0.2439
     27 C         143.2439  139.1531  162.9487 C.3     1  UNL1        0.0992
     28 C         143.6490  140.4391  163.6060 C.ar    1  UNL1       -0.0060
     29 C         142.6035  141.3556  164.1689 C.ar    1  UNL1       -0.0006
     30 C         143.0086  142.6415  164.8262 C.ar    1  UNL1        0.0294
     31 C         144.4594  143.0110  164.9207 C.ar    1  UNL1        0.1401
     32 F         144.8646  144.2970  165.5780 F       1  UNL1       -0.2042
     33 C         145.5049  142.0945  164.3578 C.ar    1  UNL1        0.0294
     34 C         145.0997  140.8085  163.7004 C.ar    1  UNL1       -0.0006
@<TRIPOS>BOND
     1    17    18    1
     2    18    14    1
     3    14    19    1
     4    19    20    1
     5    14    15   am
     6    15    16    2
     7    15     8    1
     8     8     9   ar
     9     9    10   ar
    10    10    11   ar
    11    11     1    1
    12     1     2    2
    13     2     3    1
    14     3     4    1
    15     4     5    1
    16     5    27    1
    17    27    28    1
    18    28    29   ar
    19    29    30   ar
    20    30    31   ar
    21    31    32    1
    22    31    33   ar
    23    33    34   ar
    24     5     6    1
    25     6     7    1
    26     1    21    1
    27    21    22   ar
    28    22    23   ar
    29    23    24   ar
    30    24    25   ar
    31    25    26   ar
    32    11    12   ar
    33    12    13   ar
    34    13     8   ar
    35     7     2    1
    36    26    21   ar
    37    34    28   ar
@<TRIPOS>MOLECULE
*****
 34 37 0 0 0
SMALL
GASTEIGER

@<TRIPOS>ATOM
      1 C         141.6054  141.7561  162.0536 C.2     1  UNL1        0.0099
      2 C         142.0699  141.1679  160.7543 C.2     1  UNL1       -0.0400
      3 C         142.8720  139.9004  160.7490 C.3     1  UNL1        0.0394
      4 C         143.3364  139.3122  159.4496 C.3     1  UNL1        0.0767
      5 N         142.9988  139.9915  158.1556 N.3     1  UNL1       -0.2683
      6 C         142.1967  141.2590  158.1608 C.3     1  UNL1        0.0767
      7 C         141.7322  141.8472  159.4602 C.3     1  UNL1        0.0394
      8 C         142.6182  139.7182  165.9357 C.ar    1  UNL1        0.0536
      9 C         141.4343  139.2620  165.1357 C.ar    1  UNL1        0.0045
     10 C         141.0967  139.9413  163.8417 C.ar    1  UNL1        0.0002
     11 C         141.9430  141.0768  163.3476 C.ar    1  UNL1        0.0008
     12 C         143.1270  141.5331  164.1476 C.ar    1  UNL1        0.0002
     13 C         143.4646  140.8538  165.4416 C.ar    1  UNL1        0.0045
     14 N         142.3021  139.4851  168.5039 N.am    1  UNL1       -0.2761
     15 C         142.9559  139.0389  167.2298 C.2     1  UNL1        0.2490
     16 O         143.9472  137.9135  167.2497 O.2     1  UNL1       -0.2699
     17 C         143.1478  139.6107  170.9573 C.3     1  UNL1        0.0233
     18 C         142.6397  138.8058  169.7980 C.3     1  UNL1        0.0938
     19 C         141.3107  140.6106  168.4840 C.3     1  UNL1        0.0938
     20 C         139.8403  140.3147  168.4680 C.3     1  UNL1        0.0233
     21 C         140.8033  143.0236  162.0588 C.ar    1  UNL1        0.0807
     22 C         139.3172  142.9699  162.2550 C.ar    1  UNL1        0.0191
     23 C         138.5151  144.2375  162.2603 C.ar    1  UNL1        0.0031
     24 C         139.1991  145.5587  162.0693 C.ar    1  UNL1        0.0207
     25 C         140.6853  145.6124  161.8731 C.ar    1  UNL1        0.0988
     26 N         141.4874  144.3449  161.8679 N.ar    1  UNL1       -0.2439
     27 C         143.4633  139.4032  156.8562 C.3     1  UNL1        0.0992
     28 C         142.9189  138.0846  156.3927 C.ar    1  UNL1       -0.0060
     29 C         141.4601  137.7763  156.5564 C.ar    1  UNL1       -0.0006
     30 C         140.9156  136.4577  156.0929 C.ar    1  UNL1        0.0294
     31 C         141.8300  135.4474  155.4657 C.ar    1  UNL1        0.1401
     32 F         141.2856  134.1288  155.0022 F       1  UNL1       -0.2042
     33 C         143.2888  135.7558  155.3020 C.ar    1  UNL1        0.0294
     34 C         143.8333  137.0744  155.7656 C.ar    1  UNL1       -0.0006
@<TRIPOS>BOND
     1    17    18    1
     2    18    14    1
     3    14    19    1
     4    19    20    1
     5    14    15   am
     6    15    16    2
     7    15     8    1
     8     8     9   ar
     9     9    10   ar
    10    10    11   ar
    11    11     1    1
    12     1     2    2
    13     2     3    1
    14     3     4    1
    15     4     5    1
    16     5    27    1
    17    27    28    1
    18    28    29   ar
    19    29    30   ar
    20    30    31   ar
    21    31    32    1
    22    31    33   ar
    23    33    34   ar
    24     5     6    1
    25     6     7    1
    26     1    21    1
    27    21    22   ar
    28    22    23   ar
    29    23    24   ar
    30    24    25   ar
    31    25    26   ar
    32    11    12   ar
    33    12    13   ar
    34    13     8   ar
    35     7     2    1
    36    26    21   ar
    37    34    28   ar
