@<TRIPOS>MOLECULE
*****
 28 31 0 0 0
SMALL
GASTEIGER

@<TRIPOS>ATOM
      1 C         142.4928  143.1948  162.2509 C.ar    1  UNL1        0.1185
      2 C         143.3827  143.8823  163.2435 C.ar    1  UNL1        0.0223
      3 C         143.6053  143.2758  164.5972 C.ar    1  UNL1        0.0031
      4 C         142.9381  141.9818  164.9582 C.ar    1  UNL1        0.0174
      5 C         143.1608  141.3752  166.3120 C.ar    1  UNL1       -0.0027
      6 C         142.4936  140.0812  166.6730 C.ar    1  UNL1       -0.0207
      7 C         141.6036  139.3937  165.6803 C.ar    1  UNL1       -0.0027
      8 C         141.3810  140.0003  164.3266 C.ar    1  UNL1        0.0188
      9 C         142.0482  141.2943  163.9656 C.ar    1  UNL1        0.0813
     10 N         141.8255  141.9008  162.6119 N.ar    1  UNL1       -0.2422
     11 C         141.0882  144.6280  160.4850 C.ar    1  UNL1        0.1308
     12 C         141.2779  145.0253  159.0510 C.ar    1  UNL1        0.1073
     13 C         140.3341  145.8575  158.2345 C.3     1  UNL1        0.0559
     14 N         142.5770  144.4441  158.5769 N.ar    1  UNL1       -0.0811
     15 O         143.1901  143.6877  159.7179 O.2     1  UNL1       -0.3519
     16 C         142.2701  143.8014  160.8971 C.ar    1  UNL1        0.2002
     17 C         139.9216  144.9933  161.3541 C.2     1  UNL1        0.3457
     18 O         139.9084  146.3067  162.0788 O.2     1  UNL1       -0.2447
     19 C         138.7610  142.7514  160.7403 C.3     1  UNL1        0.2560
     20 O         138.7681  144.0455  161.4987 O.3     1  UNL1       -0.4412
     21 C         142.7162  139.4747  168.0267 C.3     1  UNL1        0.0437
     22 C         141.7846  139.7995  169.1566 C.3     1  UNL1        0.0768
     23 N         141.4220  141.2265  169.4431 N.3     1  UNL1       -0.2737
     24 C         140.0360  141.8003  169.4474 C.3     1  UNL1        0.0721
     25 C         140.1391  143.2587  169.7825 C.3     1  UNL1        0.0187
     26 C         141.5888  143.5863  169.9854 C.3     1  UNL1        0.0174
     27 C         142.3816  142.3303  169.7756 C.3     1  UNL1        0.0576
     28 C         143.8724  142.2009  169.8800 C.3     1  UNL1        0.0173
@<TRIPOS>BOND
     1    19    20    1
     2    20    17    1
     3    17    18    2
     4    17    11    1
     5    11    12   ar
     6    12    13    1
     7    12    14   ar
     8    14    15   ar
     9    15    16   ar
    10    16     1    1
    11     1     2   ar
    12     2     3   ar
    13     3     4   ar
    14     4     5   ar
    15     5     6   ar
    16     6    21    1
    17    21    22    1
    18    22    23    1
    19    23    24    1
    20    24    25    1
    21    25    26    1
    22    26    27    1
    23    27    28    1
    24     6     7   ar
    25     7     8   ar
    26     8     9   ar
    27     9    10   ar
    28    16    11   ar
    29    10     1   ar
    30     9     4   ar
    31    27    23    1
@<TRIPOS>MOLECULE
*****
 28 31 0 0 0
SMALL
GASTEIGER

@<TRIPOS>ATOM
      1 C         141.2614  143.7054  163.1204 C.ar    1  UNL1        0.1185
      2 C         142.5804  144.0560  163.7427 C.ar    1  UNL1        0.0223
      3 C         143.1258  143.2223  164.8640 C.ar    1  UNL1        0.0031
      4 C         142.3522  142.0381  165.3631 C.ar    1  UNL1        0.0174
      5 C         142.8977  141.2044  166.4846 C.ar    1  UNL1       -0.0027
      6 C         142.1241  140.0202  166.9837 C.ar    1  UNL1       -0.0207
      7 C         140.8051  139.6696  166.3613 C.ar    1  UNL1       -0.0027
      8 C         140.2596  140.5032  165.2400 C.ar    1  UNL1        0.0188
      9 C         141.0332  141.6875  164.7409 C.ar    1  UNL1        0.0813
     10 N         140.4878  142.5211  163.6195 N.ar    1  UNL1       -0.2422
     11 C         141.0595  144.3957  160.5459 C.ar    1  UNL1        0.1308
     12 C         140.2870  145.4305  159.7827 C.ar    1  UNL1        0.1073
     13 C         140.3282  145.6448  158.2986 C.3     1  UNL1        0.0559
     14 N         139.4660  146.2134  160.7641 N.ar    1  UNL1       -0.0811
     15 O         139.7311  145.6625  162.1338 O.2     1  UNL1       -0.3519
     16 C         140.7159  144.5391  161.9990 C.ar    1  UNL1        0.2002
     17 C         142.0088  143.3935  159.9591 C.2     1  UNL1        0.3457
     18 O         141.4828  142.2538  159.1378 O.2     1  UNL1       -0.2447
     19 C         144.3582  142.3122  160.2056 C.3     1  UNL1        0.2560
     20 O         143.4839  143.5309  160.1934 O.3     1  UNL1       -0.4412
     21 C         142.6695  139.1865  168.1050 C.3     1  UNL1        0.0437
     22 C         142.4027  139.5772  169.5285 C.3     1  UNL1        0.0768
     23 N         141.7159  140.8752  169.8339 N.3     1  UNL1       -0.2737
     24 C         140.2433  141.0648  170.0473 C.3     1  UNL1        0.0721
     25 C         139.9984  142.5184  170.3248 C.3     1  UNL1        0.0187
     26 C         141.3198  143.2273  170.2827 C.3     1  UNL1        0.0174
     27 C         142.3812  142.2117  169.9794 C.3     1  UNL1        0.0576
     28 C         143.8500  142.4848  169.8451 C.3     1  UNL1        0.0173
@<TRIPOS>BOND
     1    19    20    1
     2    20    17    1
     3    17    18    2
     4    17    11    1
     5    11    12   ar
     6    12    13    1
     7    12    14   ar
     8    14    15   ar
     9    15    16   ar
    10    16     1    1
    11     1     2   ar
    12     2     3   ar
    13     3     4   ar
    14     4     5   ar
    15     5     6   ar
    16     6    21    1
    17    21    22    1
    18    22    23    1
    19    23    24    1
    20    24    25    1
    21    25    26    1
    22    26    27    1
    23    27    28    1
    24     6     7   ar
    25     7     8   ar
    26     8     9   ar
    27     9    10   ar
    28    16    11   ar
    29    10     1   ar
    30     9     4   ar
    31    27    23    1
@<TRIPOS>MOLECULE
*****
 28 31 0 0 0
SMALL
GASTEIGER

@<TRIPOS>ATOM
      1 C         138.2768  140.2389  160.5495 C.ar    1  UNL1        0.1185
      2 C         138.0040  141.5528  161.2196 C.ar    1  UNL1        0.0223
      3 C         138.0095  141.6466  162.7166 C.ar    1  UNL1        0.0031
      4 C         138.2879  140.4265  163.5436 C.ar    1  UNL1        0.0174
      5 C         138.2934  140.5204  165.0407 C.ar    1  UNL1       -0.0027
      6 C         138.5718  139.3002  165.8676 C.ar    1  UNL1       -0.0207
      7 C         138.8446  137.9862  165.1974 C.ar    1  UNL1       -0.0027
      8 C         138.8391  137.8924  163.7004 C.ar    1  UNL1        0.0188
      9 C         138.5607  139.1126  162.8735 C.ar    1  UNL1        0.0813
     10 N         138.5552  139.0188  161.3764 N.ar    1  UNL1       -0.2422
     11 C         139.4649  139.8900  158.1806 C.ar    1  UNL1        0.1308
     12 C         139.0025  139.8771  156.7537 C.ar    1  UNL1        0.1073
     13 C         139.8676  139.6559  155.5484 C.3     1  UNL1        0.0559
     14 N         137.5229  140.1242  156.7437 N.ar    1  UNL1       -0.0811
     15 O         137.0711  140.2897  158.1644 O.2     1  UNL1       -0.3519
     16 C         138.2713  140.1450  159.0524 C.ar    1  UNL1        0.2002
     17 C         140.8737  139.6840  158.6526 C.2     1  UNL1        0.3457
     18 O         141.8572  140.8152  158.5943 O.2     1  UNL1       -0.2447
     19 C         141.9452  138.2467  160.5331 C.3     1  UNL1        0.2560
     20 O         141.2991  138.3470  159.1831 O.3     1  UNL1       -0.4412
     21 C         138.5773  139.3940  167.3646 C.3     1  UNL1        0.0437
     22 C         139.8383  139.7631  168.0883 C.3     1  UNL1        0.0768
     23 N         139.9475  141.0922  168.7748 N.3     1  UNL1       -0.2737
     24 C         139.5531  141.3879  170.1915 C.3     1  UNL1        0.0721
     25 C         139.8321  142.8375  170.4575 C.3     1  UNL1        0.0187
     26 C         140.3990  143.4378  169.2051 C.3     1  UNL1        0.0174
     27 C         140.4703  142.3591  168.1652 C.3     1  UNL1        0.0576
     28 C         140.9757  142.5192  166.7620 C.3     1  UNL1        0.0173
@<TRIPOS>BOND
     1    19    20    1
     2    20    17    1
     3    17    18    2
     4    17    11    1
     5    11    12   ar
     6    12    13    1
     7    12    14   ar
     8    14    15   ar
     9    15    16   ar
    10    16     1    1
    11     1     2   ar
    12     2     3   ar
    13     3     4   ar
    14     4     5   ar
    15     5     6   ar
    16     6    21    1
    17    21    22    1
    18    22    23    1
    19    23    24    1
    20    24    25    1
    21    25    26    1
    22    26    27    1
    23    27    28    1
    24     6     7   ar
    25     7     8   ar
    26     8     9   ar
    27     9    10   ar
    28    16    11   ar
    29    10     1   ar
    30     9     4   ar
    31    27    23    1
@<TRIPOS>MOLECULE
*****
 28 31 0 0 0
SMALL
GASTEIGER

@<TRIPOS>ATOM
      1 C         140.3756  143.7644  162.3783 C.ar    1  UNL1        0.1185
      2 C         140.3875  144.6530  163.5866 C.ar    1  UNL1        0.0223
      3 C         140.2140  144.0617  164.9541 C.ar    1  UNL1        0.0031
      4 C         140.0286  142.5817  165.1133 C.ar    1  UNL1        0.0174
      5 C         139.8551  141.9903  166.4809 C.ar    1  UNL1       -0.0027
      6 C         139.6697  140.5104  166.6401 C.ar    1  UNL1       -0.0207
      7 C         139.6578  139.6218  165.4316 C.ar    1  UNL1       -0.0027
      8 C         139.8313  140.2131  164.0641 C.ar    1  UNL1        0.0188
      9 C         140.0167  141.6931  163.9049 C.ar    1  UNL1        0.0813
     10 N         140.1902  142.2844  162.5374 N.ar    1  UNL1       -0.2422
     11 C         141.7163  144.1328  160.0953 C.ar    1  UNL1        0.1308
     12 C         141.4745  144.9131  158.8372 C.ar    1  UNL1        0.1073
     13 C         142.3888  144.9770  157.6498 C.3     1  UNL1        0.0559
     14 N         140.1577  145.6183  158.9751 N.ar    1  UNL1       -0.0811
     15 O         139.5859  145.2738  160.3184 O.2     1  UNL1       -0.3519
     16 C         140.5491  144.3557  161.0106 C.ar    1  UNL1        0.2002
     17 C         142.9150  143.2794  160.3867 C.2     1  UNL1        0.3457
     18 O         143.9130  143.7153  161.4182 O.2     1  UNL1       -0.2447
     19 C         142.0367  140.9483  159.6488 C.3     1  UNL1        0.2560
     20 O         143.1157  141.9902  159.6467 O.3     1  UNL1       -0.4412
     21 C         139.4962  139.9190  168.0076 C.3     1  UNL1        0.0437
     22 C         139.7067  140.7699  169.2249 C.3     1  UNL1        0.0768
     23 N         141.0671  141.3258  169.5254 N.3     1  UNL1       -0.2737
     24 C         142.3439  140.5417  169.5965 C.3     1  UNL1        0.0721
     25 C         143.4554  141.4946  169.9226 C.3     1  UNL1        0.0187
     26 C         142.8656  142.8676  170.0530 C.3     1  UNL1        0.0174
     27 C         141.3895  142.7632  169.8075 C.3     1  UNL1        0.0576
     28 C         140.4082  143.8973  169.8387 C.3     1  UNL1        0.0173
@<TRIPOS>BOND
     1    19    20    1
     2    20    17    1
     3    17    18    2
     4    17    11    1
     5    11    12   ar
     6    12    13    1
     7    12    14   ar
     8    14    15   ar
     9    15    16   ar
    10    16     1    1
    11     1     2   ar
    12     2     3   ar
    13     3     4   ar
    14     4     5   ar
    15     5     6   ar
    16     6    21    1
    17    21    22    1
    18    22    23    1
    19    23    24    1
    20    24    25    1
    21    25    26    1
    22    26    27    1
    23    27    28    1
    24     6     7   ar
    25     7     8   ar
    26     8     9   ar
    27     9    10   ar
    28    16    11   ar
    29    10     1   ar
    30     9     4   ar
    31    27    23    1
@<TRIPOS>MOLECULE
*****
 28 31 0 0 0
SMALL
GASTEIGER

@<TRIPOS>ATOM
      1 C         142.1085  142.0895  167.0948 C.ar    1  UNL1        0.1185
      2 C         143.2964  142.4275  166.2436 C.ar    1  UNL1        0.0223
      3 C         143.1216  143.2614  165.0092 C.ar    1  UNL1        0.0031
      4 C         141.7588  143.7574  164.6259 C.ar    1  UNL1        0.0174
      5 C         141.5840  144.5914  163.3914 C.ar    1  UNL1       -0.0027
      6 C         140.2212  145.0874  163.0081 C.ar    1  UNL1       -0.0207
      7 C         139.0333  144.7493  163.8594 C.ar    1  UNL1       -0.0027
      8 C         139.2081  143.9154  165.0938 C.ar    1  UNL1        0.0188
      9 C         140.5709  143.4194  165.4771 C.ar    1  UNL1        0.0813
     10 N         140.7458  142.5855  166.7116 N.ar    1  UNL1       -0.2422
     11 C         142.6042  139.7908  168.3657 C.ar    1  UNL1        0.1308
     12 C         142.6871  139.3699  169.8031 C.ar    1  UNL1        0.1073
     13 C         142.9870  137.9871  170.3010 C.3     1  UNL1        0.0559
     14 N         142.4175  140.5747  170.6551 N.ar    1  UNL1       -0.0811
     15 O         142.1680  141.7401  169.7443 O.2     1  UNL1       -0.3519
     16 C         142.2833  141.2556  168.3294 C.ar    1  UNL1        0.2002
     17 C         142.8065  138.9026  167.1740 C.2     1  UNL1        0.3457
     18 O         144.0191  138.0235  167.0911 O.2     1  UNL1       -0.2447
     19 C         142.2261  139.1797  164.6567 C.3     1  UNL1        0.2560
     20 O         141.7965  138.8936  166.0651 O.3     1  UNL1       -0.4412
     21 C         140.0464  145.9213  161.7736 C.3     1  UNL1        0.0437
     22 C         140.2647  145.3125  160.4201 C.3     1  UNL1        0.0768
     23 N         140.2240  143.8225  160.2525 N.3     1  UNL1       -0.2737
     24 C         138.9881  142.9737  160.2071 C.3     1  UNL1        0.0721
     25 C         139.4124  141.5463  160.0274 C.3     1  UNL1        0.0187
     26 C         140.9107  141.5129  159.9618 C.3     1  UNL1        0.0174
     27 C         141.4122  142.9197  160.1009 C.3     1  UNL1        0.0576
     28 C         142.8496  143.3483  160.0903 C.3     1  UNL1        0.0173
@<TRIPOS>BOND
     1    19    20    1
     2    20    17    1
     3    17    18    2
     4    17    11    1
     5    11    12   ar
     6    12    13    1
     7    12    14   ar
     8    14    15   ar
     9    15    16   ar
    10    16     1    1
    11     1     2   ar
    12     2     3   ar
    13     3     4   ar
    14     4     5   ar
    15     5     6   ar
    16     6    21    1
    17    21    22    1
    18    22    23    1
    19    23    24    1
    20    24    25    1
    21    25    26    1
    22    26    27    1
    23    27    28    1
    24     6     7   ar
    25     7     8   ar
    26     8     9   ar
    27     9    10   ar
    28    16    11   ar
    29    10     1   ar
    30     9     4   ar
    31    27    23    1
@<TRIPOS>MOLECULE
*****
 28 31 0 0 0
SMALL
GASTEIGER

@<TRIPOS>ATOM
      1 C         142.6152  138.5686  159.7188 C.ar    1  UNL1        0.1185
      2 C         143.5195  138.3122  160.8877 C.ar    1  UNL1        0.0223
      3 C         142.9354  138.0300  162.2401 C.ar    1  UNL1        0.0031
      4 C         141.4469  138.0044  162.4236 C.ar    1  UNL1        0.0174
      5 C         140.8627  137.7223  163.7762 C.ar    1  UNL1       -0.0027
      6 C         139.3742  137.6966  163.9597 C.ar    1  UNL1       -0.0207
      7 C         138.4698  137.9531  162.7907 C.ar    1  UNL1       -0.0027
      8 C         139.0540  138.2352  161.4383 C.ar    1  UNL1        0.0188
      9 C         140.5425  138.2609  161.2547 C.ar    1  UNL1        0.0813
     10 N         141.1267  138.5430  159.9023 N.ar    1  UNL1       -0.2422
     11 C         142.8839  138.1139  157.0984 C.ar    1  UNL1        0.1308
     12 C         143.6911  138.7270  155.9928 C.ar    1  UNL1        0.1073
     13 C         143.6850  138.2994  154.5550 C.3     1  UNL1        0.0559
     14 N         144.5055  139.8429  156.5773 N.ar    1  UNL1       -0.0811
     15 O         144.2016  139.9194  158.0442 O.2     1  UNL1       -0.3519
     16 C         143.1994  138.8508  158.3663 C.ar    1  UNL1        0.2002
     17 C         141.9289  136.9655  156.9604 C.2     1  UNL1        0.3457
     18 O         140.4569  137.2252  156.8337 O.2     1  UNL1       -0.2447
     19 C         142.6737  134.8525  155.6448 C.3     1  UNL1        0.2560
     20 O         142.4456  135.5574  156.9491 O.3     1  UNL1       -0.4412
     21 C         138.7900  137.4145  165.3121 C.3     1  UNL1        0.0437
     22 C         138.2257  138.5353  166.1340 C.3     1  UNL1        0.0768
     23 N         139.0333  139.7786  166.3618 N.3     1  UNL1       -0.2737
     24 C         140.0305  139.9931  167.4616 C.3     1  UNL1        0.0721
     25 C         140.5990  141.3729  167.3093 C.3     1  UNL1        0.0187
     26 C         139.9531  142.0111  166.1153 C.3     1  UNL1        0.0174
     27 C         138.9854  141.0258  165.5298 C.3     1  UNL1        0.0576
     28 C         138.1216  141.2485  164.3239 C.3     1  UNL1        0.0173
@<TRIPOS>BOND
     1    19    20    1
     2    20    17    1
     3    17    18    2
     4    17    11    1
     5    11    12   ar
     6    12    13    1
     7    12    14   ar
     8    14    15   ar
     9    15    16   ar
    10    16     1    1
    11     1     2   ar
    12     2     3   ar
    13     3     4   ar
    14     4     5   ar
    15     5     6   ar
    16     6    21    1
    17    21    22    1
    18    22    23    1
    19    23    24    1
    20    24    25    1
    21    25    26    1
    22    26    27    1
    23    27    28    1
    24     6     7   ar
    25     7     8   ar
    26     8     9   ar
    27     9    10   ar
    28    16    11   ar
    29    10     1   ar
    30     9     4   ar
    31    27    23    1
@<TRIPOS>MOLECULE
*****
 28 31 0 0 0
SMALL
GASTEIGER

@<TRIPOS>ATOM
      1 C         142.7811  139.8836  162.2841 C.ar    1  UNL1        0.1185
      2 C         143.6180  139.1498  163.2897 C.ar    1  UNL1        0.0223
      3 C         143.1521  139.0328  164.7107 C.ar    1  UNL1        0.0031
      4 C         141.8493  139.6495  165.1260 C.ar    1  UNL1        0.0174
      5 C         141.3834  139.5324  166.5471 C.ar    1  UNL1       -0.0027
      6 C         140.0806  140.1491  166.9624 C.ar    1  UNL1       -0.0207
      7 C         139.2438  140.8828  165.9567 C.ar    1  UNL1       -0.0027
      8 C         139.7097  140.9999  164.5358 C.ar    1  UNL1        0.0188
      9 C         141.0125  140.3832  164.1204 C.ar    1  UNL1        0.0813
     10 N         141.4784  140.5002  162.6995 N.ar    1  UNL1       -0.2422
     11 C         143.8138  141.2314  160.2196 C.ar    1  UNL1        0.1308
     12 C         144.1450  140.8989  158.7949 C.ar    1  UNL1        0.1073
     13 C         144.7347  141.8378  157.7846 C.3     1  UNL1        0.0559
     14 N         143.7829  139.4626  158.5578 N.ar    1  UNL1       -0.0811
     15 O         143.2280  138.9075  159.8361 O.2     1  UNL1       -0.3519
     16 C         143.2470  140.0006  160.8631 C.ar    1  UNL1        0.2002
     17 C         144.0142  142.5611  160.8840 C.2     1  UNL1        0.3457
     18 O         145.0729  142.7227  161.9344 O.2     1  UNL1       -0.2447
     19 C         141.7483  143.5043  160.0317 C.3     1  UNL1        0.2560
     20 O         143.1560  143.7293  160.4983 O.3     1  UNL1       -0.4412
     21 C         139.6147  140.0320  168.3834 C.3     1  UNL1        0.0437
     22 C         140.6165  139.9262  169.4949 C.3     1  UNL1        0.0768
     23 N         141.5877  141.0431  169.7381 N.3     1  UNL1       -0.2737
     24 C         143.0758  140.9712  169.5638 C.3     1  UNL1        0.0721
     25 C         143.6492  142.3117  169.9163 C.3     1  UNL1        0.0187
     26 C         142.5154  143.2121  170.3084 C.3     1  UNL1        0.0174
     27 C         141.2413  142.4281  170.1983 C.3     1  UNL1        0.0576
     28 C         139.8630  142.9394  170.4960 C.3     1  UNL1        0.0173
@<TRIPOS>BOND
     1    19    20    1
     2    20    17    1
     3    17    18    2
     4    17    11    1
     5    11    12   ar
     6    12    13    1
     7    12    14   ar
     8    14    15   ar
     9    15    16   ar
    10    16     1    1
    11     1     2   ar
    12     2     3   ar
    13     3     4   ar
    14     4     5   ar
    15     5     6   ar
    16     6    21    1
    17    21    22    1
    18    22    23    1
    19    23    24    1
    20    24    25    1
    21    25    26    1
    22    26    27    1
    23    27    28    1
    24     6     7   ar
    25     7     8   ar
    26     8     9   ar
    27     9    10   ar
    28    16    11   ar
    29    10     1   ar
    30     9     4   ar
    31    27    23    1
@<TRIPOS>MOLECULE
*****
 28 31 0 0 0
SMALL
GASTEIGER

@<TRIPOS>ATOM
      1 C         138.9797  139.6308  166.5705 C.ar    1  UNL1        0.1185
      2 C         139.0590  138.2558  165.9763 C.ar    1  UNL1        0.0223
      3 C         138.8121  138.0570  164.5103 C.ar    1  UNL1        0.0031
      4 C         138.4858  139.2331  163.6383 C.ar    1  UNL1        0.0174
      5 C         138.2389  139.0342  162.1722 C.ar    1  UNL1       -0.0027
      6 C         137.9126  140.2103  161.3002 C.ar    1  UNL1       -0.0207
      7 C         137.8333  141.5854  161.8945 C.ar    1  UNL1       -0.0027
      8 C         138.0803  141.7842  163.3605 C.ar    1  UNL1        0.0188
      9 C         138.4065  140.6081  164.2325 C.ar    1  UNL1        0.0813
     10 N         138.6535  140.8070  165.6985 N.ar    1  UNL1       -0.2422
     11 C         140.4759  140.3863  168.6528 C.ar    1  UNL1        0.1308
     12 C         140.2890  140.4076  170.1409 C.ar    1  UNL1        0.1073
     13 C         141.2909  140.8879  171.1486 C.3     1  UNL1        0.0559
     14 N         138.9242  139.8641  170.4445 N.ar    1  UNL1       -0.0811
     15 O         138.2677  139.5070  169.1440 O.2     1  UNL1       -0.3519
     16 C         139.2267  139.8297  168.0366 C.ar    1  UNL1        0.2002
     17 C         141.6975  140.8418  167.9110 C.2     1  UNL1        0.3457
     18 O         141.7851  142.2507  167.4038 O.2     1  UNL1       -0.2447
     19 C         142.7854  138.9387  166.5164 C.3     1  UNL1        0.2560
     20 O         142.8315  139.8884  167.6766 O.3     1  UNL1       -0.4412
     21 C         137.6657  140.0115  159.8342 C.3     1  UNL1        0.0437
     22 C         138.8142  140.0384  158.8697 C.3     1  UNL1        0.0768
     23 N         140.2234  139.9720  159.3794 N.3     1  UNL1       -0.2737
     24 C         141.0165  138.7215  159.6183 C.3     1  UNL1        0.0721
     25 C         142.3701  139.1210  160.1263 C.3     1  UNL1        0.0187
     26 C         142.4135  140.6186  160.2014 C.3     1  UNL1        0.0174
     27 C         141.0868  141.1445  159.7397 C.3     1  UNL1        0.0576
     28 C         140.6926  142.5892  159.6536 C.3     1  UNL1        0.0173
@<TRIPOS>BOND
     1    19    20    1
     2    20    17    1
     3    17    18    2
     4    17    11    1
     5    11    12   ar
     6    12    13    1
     7    12    14   ar
     8    14    15   ar
     9    15    16   ar
    10    16     1    1
    11     1     2   ar
    12     2     3   ar
    13     3     4   ar
    14     4     5   ar
    15     5     6   ar
    16     6    21    1
    17    21    22    1
    18    22    23    1
    19    23    24    1
    20    24    25    1
    21    25    26    1
    22    26    27    1
    23    27    28    1
    24     6     7   ar
    25     7     8   ar
    26     8     9   ar
    27     9    10   ar
    28    16    11   ar
    29    10     1   ar
    30     9     4   ar
    31    27    23    1
@<TRIPOS>MOLECULE
*****
 28 31 0 0 0
SMALL
GASTEIGER

@<TRIPOS>ATOM
      1 C         141.6302  142.8203  162.5204 C.ar    1  UNL1        0.1185
      2 C         141.6357  143.8499  163.6111 C.ar    1  UNL1        0.0223
      3 C         141.1604  143.4876  164.9869 C.ar    1  UNL1        0.0031
      4 C         140.6796  142.0956  165.2719 C.ar    1  UNL1        0.0174
      5 C         140.2043  141.7333  166.6478 C.ar    1  UNL1       -0.0027
      6 C         139.7235  140.3413  166.9328 C.ar    1  UNL1       -0.0207
      7 C         139.7181  139.3116  165.8419 C.ar    1  UNL1       -0.0027
      8 C         140.1933  139.6740  164.4662 C.ar    1  UNL1        0.0188
      9 C         140.6741  141.0660  164.1812 C.ar    1  UNL1        0.0813
     10 N         141.1494  141.4283  162.8054 N.ar    1  UNL1       -0.2422
     11 C         141.3123  143.9125  160.1014 C.ar    1  UNL1        0.1308
     12 C         142.1740  144.0596  158.8825 C.ar    1  UNL1        0.1073
     13 C         141.7793  144.7282  157.5991 C.3     1  UNL1        0.0559
     14 N         143.4999  143.4206  159.1723 N.ar    1  UNL1       -0.0811
     15 O         143.4575  142.8786  160.5703 O.2     1  UNL1       -0.3519
     16 C         142.1055  143.1826  161.1445 C.ar    1  UNL1        0.2002
     17 C         139.9045  144.4082  160.2509 C.2     1  UNL1        0.3457
     18 O         139.6454  145.8617  160.5160 O.2     1  UNL1       -0.2447
     19 C         138.6468  142.5507  158.9403 C.3     1  UNL1        0.2560
     20 O         138.7558  143.4506  160.1353 O.3     1  UNL1       -0.4412
     21 C         139.2482  139.9790  168.3085 C.3     1  UNL1        0.0437
     22 C         139.5392  140.8876  169.4661 C.3     1  UNL1        0.0768
     23 N         140.9408  141.3606  169.7145 N.3     1  UNL1       -0.2737
     24 C         142.1596  140.4920  169.8153 C.3     1  UNL1        0.0721
     25 C         143.3418  141.3798  170.0688 C.3     1  UNL1        0.0187
     26 C         142.8535  142.7971  170.1246 C.3     1  UNL1        0.0174
     27 C         141.3697  142.7851  169.9057 C.3     1  UNL1        0.0576
     28 C         140.4723  143.9869  169.8820 C.3     1  UNL1        0.0173
@<TRIPOS>BOND
     1    19    20    1
     2    20    17    1
     3    17    18    2
     4    17    11    1
     5    11    12   ar
     6    12    13    1
     7    12    14   ar
     8    14    15   ar
     9    15    16   ar
    10    16     1    1
    11     1     2   ar
    12     2     3   ar
    13     3     4   ar
    14     4     5   ar
    15     5     6   ar
    16     6    21    1
    17    21    22    1
    18    22    23    1
    19    23    24    1
    20    24    25    1
    21    25    26    1
    22    26    27    1
    23    27    28    1
    24     6     7   ar
    25     7     8   ar
    26     8     9   ar
    27     9    10   ar
    28    16    11   ar
    29    10     1   ar
    30     9     4   ar
    31    27    23    1
