@<TRIPOS>MOLECULE
*****
 40 43 0 0 0
SMALL
GASTEIGER

@<TRIPOS>ATOM
      1 N         140.6013  138.5844  158.8279 N.am    1  UNL1       -0.2531
      2 C         141.2096  138.9361  160.1531 C.2     1  UNL1        0.3135
      3 O         142.5906  139.5183  160.2136 O.2     1  UNL1       -0.2518
      4 N         140.4366  138.7057  161.4179 N.am    1  UNL1       -0.2282
      5 C         139.0556  138.1236  161.3574 C.3     1  UNL1        0.1015
      6 C         138.2827  137.8932  162.6221 C.3     1  UNL1        0.0268
      7 C         138.8910  138.2450  163.9474 C.3     1  UNL1        0.0310
      8 C         140.2720  138.8271  164.0079 C.ar    1  UNL1        0.0096
      9 C         140.8803  139.1789  165.3331 C.ar    1  UNL1       -0.0025
     10 C         142.2613  139.7610  165.3937 C.ar    1  UNL1        0.0184
     11 CA        143.0343  139.9914  164.1289 C.ar    1  UNL1        0.1224
     12 N         142.4260  139.6396  162.8036 N.ar    1  UNL1       -0.2275
     13 C         141.0449  139.0575  162.7432 C.ar    1  UNL1        0.1345
     14 H         139.6949  138.2023  158.7881 H       1  UNL1        0.1578
     15 C         143.2813  138.1329  155.9358 C.ar    1  UNL1        0.1525
     16 C         142.5084  137.9025  157.2005 C.ar    1  UNL1        0.0721
     17 C         141.3742  138.8147  157.5631 C.ar    1  UNL1        0.1384
     18 N         141.0128  139.9573  156.6609 N.ar    1  UNL1       -0.2281
     19 C         141.7857  140.1876  155.3961 C.ar    1  UNL1        0.1136
     20 C         142.9199  139.2755  155.0336 C.ar    1  UNL1        0.1215
     21 C         143.6928  139.5058  153.7689 C.1     1  UNL1        0.1051
     22 N         144.4657  139.7362  152.5041 N.1     1  UNL1       -0.1907
     23 O         144.4155  137.2207  155.5733 O.3     1  UNL1       -0.4719
     24 C         144.1812  135.7441  155.4527 C.3     1  UNL1        0.2373
     25 C         142.9241  135.2339  154.8127 C.3     1  UNL1        0.1894
     26 C         141.4123  133.2032  155.3964 C.3     1  UNL1        0.1743
     27 O         141.8509  134.6137  155.6574 O.3     1  UNL1       -0.3471
     28 C         144.4153  140.5735  164.1894 C.2     1  UNL1        0.2529
     29 O         144.6005  142.0409  164.4399 O.2     1  UNL1       -0.2815
     30 C         142.8696  140.1128  166.7189 C.3     1  UNL1        0.1217
     31 N         142.0569  140.8422  167.7472 N.am    1  UNL1       -0.2761
     32 C         141.4412  142.1686  167.4136 C.2     1  UNL1        0.2422
     33 O         141.6382  142.7657  166.0517 O.2     1  UNL1       -0.2733
     34 C         140.6284  142.8981  168.4419 C.3     1  UNL1        0.1587
     35 N         140.4314  142.3011  169.8038 N.3     1  UNL1       -0.2624
     36 C         139.6187  143.0305  170.8321 C.3     1  UNL1        0.0901
     37 C         141.0472  140.9745  170.1374 C.3     1  UNL1        0.0909
     38 C         141.8599  140.2451  169.1091 C.3     1  UNL1        0.0754
     39 C         142.7063  139.1798  168.4776 C.3     1  UNL1        0.0213
     40 C         141.9568  139.2781  170.2516 C.3     1  UNL1        0.0213
@<TRIPOS>BOND
     1    26    27    1
     2    27    25    1
     3    25    24    1
     4    24    23    1
     5    23    15    1
     6    15    16   ar
     7    16    17   ar
     8    17     1    1
     9     1     2   am
    10     2     3    2
    11     2     4   am
    12     4     5    1
    13     5     6    1
    14     6     7    1
    15     7     8    1
    16     8     9   ar
    17     9    10   ar
    18    10    30    1
    19    30    31    1
    20    31    32   am
    21    32    33    2
    22    32    34    1
    23    34    35    1
    24    35    36    1
    25    35    37    1
    26    37    38    1
    27    38    39    1
    28    38    40    1
    29    10    11   ar
    30    11    28    1
    31    28    29    2
    32    11    12   ar
    33    12    13   ar
    34    17    18   ar
    35    18    19   ar
    36    19    20   ar
    37    20    21    1
    38    21    22    3
    39    20    15   ar
    40    13     4    1
    41    13     8   ar
    42    38    31    1
    43     1    14    1
@<TRIPOS>MOLECULE
*****
 40 43 0 0 0
SMALL
GASTEIGER

@<TRIPOS>ATOM
      1 N         138.4798  142.9104  158.8000 N.am    1  UNL1       -0.2531
      2 C         138.6062  142.0525  160.0239 C.2     1  UNL1        0.3135
      3 O         138.6013  140.5580  159.8961 O.2     1  UNL1       -0.2518
      4 N         138.7374  142.6891  161.3758 N.am    1  UNL1       -0.2282
      5 C         138.7423  144.1836  161.5037 C.3     1  UNL1        0.1015
      6 C         138.8735  144.8202  162.8555 C.3     1  UNL1        0.0268
      7 C         138.9999  143.9623  164.0794 C.3     1  UNL1        0.0310
      8 C         138.9951  142.4678  163.9516 C.ar    1  UNL1        0.0096
      9 C         139.1215  141.6099  165.1755 C.ar    1  UNL1       -0.0025
     10 C         139.1167  140.1154  165.0476 C.ar    1  UNL1        0.0184
     11 CA        138.9854  139.4788  163.6958 C.ar    1  UNL1        0.1224
     12 N         138.8590  140.3367  162.4718 N.ar    1  UNL1       -0.2275
     13 C         138.8638  141.8312  162.5997 C.ar    1  UNL1        0.1345
     14 H         138.4829  143.8913  158.8839 H       1  UNL1        0.1578
     15 C         136.8703  141.5316  155.4446 C.ar    1  UNL1        0.1525
     16 C         137.0016  142.1682  156.7964 C.ar    1  UNL1        0.0721
     17 C         138.3485  142.2738  157.4482 C.ar    1  UNL1        0.1384
     18 N         139.5641  141.7427  156.7480 N.ar    1  UNL1       -0.2281
     19 C         139.4328  141.1060  155.3961 C.ar    1  UNL1        0.1136
     20 C         138.0860  141.0005  154.7445 C.ar    1  UNL1        0.1215
     21 C         137.9547  140.3639  153.3926 C.1     1  UNL1        0.1051
     22 N         137.8234  139.7273  152.0407 N.1     1  UNL1       -0.1907
     23 O         135.5235  141.4261  154.7929 O.3     1  UNL1       -0.4719
     24 C         134.6701  140.2148  155.0264 C.3     1  UNL1        0.2373
     25 C         133.8733  140.0913  156.2913 C.3     1  UNL1        0.1894
     26 C         133.1577  138.6190  158.3088 C.3     1  UNL1        0.1743
     27 O         133.6128  138.7384  156.8845 O.3     1  UNL1       -0.3471
     28 C         138.9806  137.9843  163.5679 C.2     1  UNL1        0.2529
     29 O         139.9958  137.3025  162.6991 O.2     1  UNL1       -0.2815
     30 C         139.2431  139.2575  166.2716 C.3     1  UNL1        0.1217
     31 N         140.2381  139.6121  167.3365 N.am    1  UNL1       -0.2761
     32 C         141.7032  139.6359  167.0159 C.2     1  UNL1        0.2422
     33 O         142.1733  139.3052  165.6303 O.2     1  UNL1       -0.2733
     34 C         142.6984  139.9905  168.0808 C.3     1  UNL1        0.1587
     35 N         142.2284  140.3212  169.4663 N.3     1  UNL1       -0.2624
     36 C         143.2234  140.6758  170.5312 C.3     1  UNL1        0.0901
     37 C         140.7632  140.2974  169.7869 C.3     1  UNL1        0.0909
     38 C         139.7681  139.9428  168.7220 C.3     1  UNL1        0.0754
     39 C         138.4509  139.6702  168.0582 C.3     1  UNL1        0.0213
     40 C         138.8406  140.1788  169.8770 C.3     1  UNL1        0.0213
@<TRIPOS>BOND
     1    26    27    1
     2    27    25    1
     3    25    24    1
     4    24    23    1
     5    23    15    1
     6    15    16   ar
     7    16    17   ar
     8    17     1    1
     9     1     2   am
    10     2     3    2
    11     2     4   am
    12     4     5    1
    13     5     6    1
    14     6     7    1
    15     7     8    1
    16     8     9   ar
    17     9    10   ar
    18    10    30    1
    19    30    31    1
    20    31    32   am
    21    32    33    2
    22    32    34    1
    23    34    35    1
    24    35    36    1
    25    35    37    1
    26    37    38    1
    27    38    39    1
    28    38    40    1
    29    10    11   ar
    30    11    28    1
    31    28    29    2
    32    11    12   ar
    33    12    13   ar
    34    17    18   ar
    35    18    19   ar
    36    19    20   ar
    37    20    21    1
    38    21    22    3
    39    20    15   ar
    40    13     4    1
    41    13     8   ar
    42    38    31    1
    43     1    14    1
@<TRIPOS>MOLECULE
*****
 40 43 0 0 0
SMALL
GASTEIGER

@<TRIPOS>ATOM
      1 N         139.1343  140.1508  158.3535 N.am    1  UNL1       -0.2531
      2 C         139.3402  139.7899  159.7948 C.2     1  UNL1        0.3135
      3 O         139.8709  138.4355  160.1604 O.2     1  UNL1       -0.2518
      4 N         139.0153  140.7836  160.8705 N.am    1  UNL1       -0.2282
      5 C         138.4845  142.1380  160.5049 C.3     1  UNL1        0.1015
      6 C         138.1596  143.1316  161.5807 C.3     1  UNL1        0.0268
      7 C         138.3655  142.7707  163.0220 C.3     1  UNL1        0.0310
      8 C         138.8963  141.4163  163.3876 C.ar    1  UNL1        0.0096
      9 C         139.1022  141.0554  164.8289 C.ar    1  UNL1       -0.0025
     10 C         139.6330  139.7010  165.1945 C.ar    1  UNL1        0.0184
     11 CA        139.9579  138.7073  164.1187 C.ar    1  UNL1        0.1224
     12 N         139.7520  139.0682  162.6774 N.ar    1  UNL1       -0.2275
     13 C         139.2212  140.4227  162.3118 C.ar    1  UNL1        0.1345
     14 H         138.7859  141.0398  158.1135 H       1  UNL1        0.1578
     15 C         141.1311  137.5045  156.1718 C.ar    1  UNL1        0.1525
     16 C         140.8063  138.4981  157.2475 C.ar    1  UNL1        0.0721
     17 C         139.4591  139.1572  157.2778 C.ar    1  UNL1        0.1384
     18 N         138.4369  138.8226  156.2322 N.ar    1  UNL1       -0.2281
     19 C         138.7618  137.8290  155.1565 C.ar    1  UNL1        0.1136
     20 C         140.1089  137.1700  155.1263 C.ar    1  UNL1        0.1215
     21 C         140.4338  136.1764  154.0506 C.1     1  UNL1        0.1051
     22 N         140.7587  135.1828  152.9748 N.1     1  UNL1       -0.1907
     23 O         142.4782  136.8455  156.1416 O.3     1  UNL1       -0.4719
     24 C         142.9385  136.0257  157.3104 C.3     1  UNL1        0.2373
     25 C         143.4703  134.6402  157.0917 C.3     1  UNL1        0.1894
     26 C         141.9423  133.0643  155.7019 C.3     1  UNL1        0.1743
     27 O         142.5260  133.4769  157.0206 O.3     1  UNL1       -0.3471
     28 C         140.4887  137.3529  164.4843 C.2     1  UNL1        0.2529
     29 O         141.1759  136.5122  163.4494 O.2     1  UNL1       -0.2815
     30 C         139.8389  139.3401  166.6358 C.3     1  UNL1        0.1217
     31 N         140.6209  140.2529  167.5331 N.am    1  UNL1       -0.2761
     32 C         141.9668  140.7557  167.1024 C.2     1  UNL1        0.2422
     33 O         142.5308  140.3457  165.7743 O.2     1  UNL1       -0.2733
     34 C         142.7489  141.6685  167.9998 C.3     1  UNL1        0.1587
     35 N         142.1849  142.0785  169.3279 N.3     1  UNL1       -0.2624
     36 C         142.9669  142.9913  170.2252 C.3     1  UNL1        0.0901
     37 C         140.8389  141.5757  169.7586 C.3     1  UNL1        0.0909
     38 C         140.0569  140.6629  168.8612 C.3     1  UNL1        0.0754
     39 C         138.9449  139.7868  168.3653 C.3     1  UNL1        0.0213
     40 C         139.1068  140.7686  170.0171 C.3     1  UNL1        0.0213
@<TRIPOS>BOND
     1    26    27    1
     2    27    25    1
     3    25    24    1
     4    24    23    1
     5    23    15    1
     6    15    16   ar
     7    16    17   ar
     8    17     1    1
     9     1     2   am
    10     2     3    2
    11     2     4   am
    12     4     5    1
    13     5     6    1
    14     6     7    1
    15     7     8    1
    16     8     9   ar
    17     9    10   ar
    18    10    30    1
    19    30    31    1
    20    31    32   am
    21    32    33    2
    22    32    34    1
    23    34    35    1
    24    35    36    1
    25    35    37    1
    26    37    38    1
    27    38    39    1
    28    38    40    1
    29    10    11   ar
    30    11    28    1
    31    28    29    2
    32    11    12   ar
    33    12    13   ar
    34    17    18   ar
    35    18    19   ar
    36    19    20   ar
    37    20    21    1
    38    21    22    3
    39    20    15   ar
    40    13     4    1
    41    13     8   ar
    42    38    31    1
    43     1    14    1
@<TRIPOS>MOLECULE
*****
 40 43 0 0 0
SMALL
GASTEIGER

@<TRIPOS>ATOM
      1 N         143.5024  138.3719  156.6987 N.am    1  UNL1       -0.2531
      2 C         142.5355  138.8226  157.7532 C.2     1  UNL1        0.3135
      3 O         141.2826  138.0378  158.0067 O.2     1  UNL1       -0.2518
      4 N         142.8215  140.0582  158.5541 N.am    1  UNL1       -0.2282
      5 C         144.0744  140.8431  158.3006 C.3     1  UNL1        0.1015
      6 C         144.3603  142.0786  159.1016 C.3     1  UNL1        0.0268
      7 C         143.3934  142.5293  160.1561 C.3     1  UNL1        0.0310
      8 C         142.1406  141.7445  160.4096 C.ar    1  UNL1        0.0096
      9 C         141.1736  142.1952  161.4641 C.ar    1  UNL1       -0.0025
     10 C         139.9208  141.4104  161.7176 C.ar    1  UNL1        0.0184
     11 CA        139.6348  140.1748  160.9166 C.ar    1  UNL1        0.1224
     12 N         140.6017  139.7240  159.8621 N.ar    1  UNL1       -0.2275
     13 C         141.8546  140.5089  159.6086 C.ar    1  UNL1        0.1345
     14 H         144.3248  138.8870  156.5323 H       1  UNL1        0.1578
     15 C         143.4125  134.5651  155.5804 C.ar    1  UNL1        0.1525
     16 C         143.6985  135.8007  156.3814 C.ar    1  UNL1        0.0721
     17 C         143.2165  137.1363  155.8977 C.ar    1  UNL1        0.1384
     18 N         142.4486  137.2363  154.6131 N.ar    1  UNL1       -0.2281
     19 C         142.1626  136.0007  153.8121 C.ar    1  UNL1        0.1136
     20 C         142.6446  134.6651  154.2958 C.ar    1  UNL1        0.1215
     21 C         142.3587  133.4296  153.4948 C.1     1  UNL1        0.1051
     22 N         142.0727  132.1940  152.6937 N.1     1  UNL1       -0.1907
     23 O         143.8945  133.2296  156.0641 O.3     1  UNL1       -0.4719
     24 C         144.3070  133.0545  157.4956 C.3     1  UNL1        0.2373
     25 C         145.3407  132.0298  157.8583 C.3     1  UNL1        0.1894
     26 C         143.9244  129.8715  157.5653 C.3     1  UNL1        0.1743
     27 O         144.9162  130.6778  158.3502 O.3     1  UNL1       -0.3471
     28 C         138.3819  139.3899  161.1701 C.2     1  UNL1        0.2529
     29 O         138.4672  138.0020  161.7326 O.2     1  UNL1       -0.2815
     30 C         138.9538  141.8611  162.7720 C.3     1  UNL1        0.1217
     31 N         139.4212  142.0568  164.1838 N.am    1  UNL1       -0.2761
     32 C         140.0782  140.9269  164.9197 C.2     1  UNL1        0.2422
     33 O         140.2678  139.6013  164.2439 O.2     1  UNL1       -0.2733
     34 C         140.5456  141.1225  166.3316 C.3     1  UNL1        0.1587
     35 N         140.3560  142.4481  167.0075 N.3     1  UNL1       -0.2624
     36 C         140.8233  142.6438  168.4193 C.3     1  UNL1        0.0901
     37 C         139.6989  143.5781  166.2715 C.3     1  UNL1        0.0909
     38 C         139.2316  143.3824  164.8597 C.3     1  UNL1        0.0754
     39 C         138.6252  143.6834  163.5212 C.3     1  UNL1        0.0213
     40 C         138.8314  144.8125  165.0708 C.3     1  UNL1        0.0213
@<TRIPOS>BOND
     1    26    27    1
     2    27    25    1
     3    25    24    1
     4    24    23    1
     5    23    15    1
     6    15    16   ar
     7    16    17   ar
     8    17     1    1
     9     1     2   am
    10     2     3    2
    11     2     4   am
    12     4     5    1
    13     5     6    1
    14     6     7    1
    15     7     8    1
    16     8     9   ar
    17     9    10   ar
    18    10    30    1
    19    30    31    1
    20    31    32   am
    21    32    33    2
    22    32    34    1
    23    34    35    1
    24    35    36    1
    25    35    37    1
    26    37    38    1
    27    38    39    1
    28    38    40    1
    29    10    11   ar
    30    11    28    1
    31    28    29    2
    32    11    12   ar
    33    12    13   ar
    34    17    18   ar
    35    18    19   ar
    36    19    20   ar
    37    20    21    1
    38    21    22    3
    39    20    15   ar
    40    13     4    1
    41    13     8   ar
    42    38    31    1
    43     1    14    1
@<TRIPOS>MOLECULE
*****
 40 43 0 0 0
SMALL
GASTEIGER

@<TRIPOS>ATOM
      1 N         141.4604  138.6834  163.8671 N.am    1  UNL1       -0.2531
      2 C         141.0239  139.4136  162.6317 C.2     1  UNL1        0.3135
      3 O         140.0640  140.5613  162.7386 O.2     1  UNL1       -0.2518
      4 N         141.5473  138.9961  161.2893 N.am    1  UNL1       -0.2282
      5 C         142.5072  137.8485  161.1824 C.3     1  UNL1        0.1015
      6 C         143.0305  137.4311  159.8401 C.3     1  UNL1        0.0268
      7 C         142.5940  138.1613  158.6047 C.3     1  UNL1        0.0310
      8 C         141.6341  139.3090  158.7116 C.ar    1  UNL1        0.0096
      9 C         141.1976  140.0392  157.4762 C.ar    1  UNL1       -0.0025
     10 C         140.2377  141.1869  157.5831 C.ar    1  UNL1        0.0184
     11 CA        139.7143  141.6043  158.9255 C.ar    1  UNL1        0.1224
     12 N         140.1508  140.8741  160.1609 N.ar    1  UNL1       -0.2275
     13 C         141.1108  139.7264  160.0539 C.ar    1  UNL1        0.1345
     14 H         142.0904  137.9301  163.7969 H       1  UNL1        0.1578
     15 C         141.3505  140.0770  167.5813 C.ar    1  UNL1        0.1525
     16 C         141.8739  139.6596  166.2390 C.ar    1  UNL1        0.0721
     17 C         140.9370  139.1008  165.2094 C.ar    1  UNL1        0.1384
     18 N         139.4768  138.9594  165.5221 N.ar    1  UNL1       -0.2281
     19 C         138.9535  139.3769  166.8645 C.ar    1  UNL1        0.1136
     20 C         139.8903  139.9356  167.8941 C.ar    1  UNL1        0.1215
     21 C         139.3669  140.3531  169.2363 C.1     1  UNL1        0.1051
     22 N         138.8435  140.7705  170.5787 N.1     1  UNL1       -0.1907
     23 O         142.2874  140.6357  168.6109 O.3     1  UNL1       -0.4719
     24 C         142.5626  142.1097  168.6532 C.3     1  UNL1        0.2373
     25 C         142.7888  142.7929  169.9694 C.3     1  UNL1        0.1894
     26 C         140.4555  143.9215  169.7912 C.3     1  UNL1        0.1743
     27 O         141.7635  143.7480  170.5046 O.3     1  UNL1       -0.3471
     28 C         138.7544  142.7520  159.0324 C.2     1  UNL1        0.2529
     29 O         138.1516  143.1044  160.3600 O.2     1  UNL1       -0.2815
     30 C         139.8012  141.9171  156.3477 C.3     1  UNL1        0.1217
     31 N         138.3931  141.7753  155.8509 N.am    1  UNL1       -0.2761
     32 C         137.7174  140.4365  155.8836 C.2     1  UNL1        0.2422
     33 O         138.4500  139.2395  156.4131 O.2     1  UNL1       -0.2733
     34 C         136.3092  140.2947  155.3867 C.3     1  UNL1        0.1587
     35 N         135.5766  141.4918  154.8571 N.3     1  UNL1       -0.2624
     36 C         134.1685  141.3500  154.3603 C.3     1  UNL1        0.0901
     37 C         136.2523  142.8306  154.8245 C.3     1  UNL1        0.0909
     38 C         137.6605  142.9724  155.3213 C.3     1  UNL1        0.0754
     39 C         138.9725  143.6063  155.6772 C.3     1  UNL1        0.0213
     40 C         137.3836  144.3896  154.9154 C.3     1  UNL1        0.0213
@<TRIPOS>BOND
     1    26    27    1
     2    27    25    1
     3    25    24    1
     4    24    23    1
     5    23    15    1
     6    15    16   ar
     7    16    17   ar
     8    17     1    1
     9     1     2   am
    10     2     3    2
    11     2     4   am
    12     4     5    1
    13     5     6    1
    14     6     7    1
    15     7     8    1
    16     8     9   ar
    17     9    10   ar
    18    10    30    1
    19    30    31    1
    20    31    32   am
    21    32    33    2
    22    32    34    1
    23    34    35    1
    24    35    36    1
    25    35    37    1
    26    37    38    1
    27    38    39    1
    28    38    40    1
    29    10    11   ar
    30    11    28    1
    31    28    29    2
    32    11    12   ar
    33    12    13   ar
    34    17    18   ar
    35    18    19   ar
    36    19    20   ar
    37    20    21    1
    38    21    22    3
    39    20    15   ar
    40    13     4    1
    41    13     8   ar
    42    38    31    1
    43     1    14    1
@<TRIPOS>MOLECULE
*****
 40 43 0 0 0
SMALL
GASTEIGER

@<TRIPOS>ATOM
      1 N         142.5356  136.2962  155.5896 N.am    1  UNL1       -0.2531
      2 C         142.7807  137.0249  156.8776 C.2     1  UNL1        0.3135
      3 O         143.0017  136.2539  158.1452 O.2     1  UNL1       -0.2518
      4 N         142.8050  138.5246  156.8981 N.am    1  UNL1       -0.2282
      5 C         142.5841  139.2956  155.6305 C.3     1  UNL1        0.1015
      6 C         142.6083  140.7952  155.6510 C.3     1  UNL1        0.0268
      7 C         142.8535  141.5239  156.9390 C.3     1  UNL1        0.0310
      8 C         143.0745  140.7529  158.2065 C.ar    1  UNL1        0.0096
      9 C         143.3196  141.4815  159.4946 C.ar    1  UNL1       -0.0025
     10 C         143.5406  140.7105  160.7621 C.ar    1  UNL1        0.0184
     11 CA        143.5163  139.2108  160.7417 C.ar    1  UNL1        0.1224
     12 N         143.2711  138.4822  159.4537 N.ar    1  UNL1       -0.2275
     13 C         143.0502  139.2532  158.1861 C.ar    1  UNL1        0.1345
     14 H         142.3905  136.8023  154.7577 H       1  UNL1        0.1578
     15 C         143.7009  132.5214  155.9673 C.ar    1  UNL1        0.1525
     16 C         143.7252  134.0211  155.9877 C.ar    1  UNL1        0.0721
     17 C         142.5113  134.7966  155.5692 C.ar    1  UNL1        0.1384
     18 N         141.2732  134.0724  155.1301 N.ar    1  UNL1       -0.2281
     19 C         141.2490  132.5727  155.1097 C.ar    1  UNL1        0.1136
     20 C         142.4628  131.7973  155.5282 C.ar    1  UNL1        0.1215
     21 C         142.4386  130.2976  155.5078 C.1     1  UNL1        0.1051
     22 N         142.4143  128.7979  155.4873 N.1     1  UNL1       -0.1907
     23 O         144.9147  131.7460  156.3858 O.3     1  UNL1       -0.4719
     24 C         145.1072  131.3740  157.8262 C.3     1  UNL1        0.2373
     25 C         144.9262  129.9507  158.2639 C.3     1  UNL1        0.1894
     26 C         143.4630  128.3652  159.7114 C.3     1  UNL1        0.1743
     27 O         143.5749  129.4657  158.6983 O.3     1  UNL1       -0.3471
     28 C         143.7373  138.4398  162.0092 C.2     1  UNL1        0.2529
     29 O         142.5780  137.7857  162.7010 O.2     1  UNL1       -0.2815
     30 C         143.7858  141.4391  162.0501 C.3     1  UNL1        0.1217
     31 N         142.7240  142.3319  162.6206 N.am    1  UNL1       -0.2761
     32 C         141.3166  141.8312  162.7564 C.2     1  UNL1        0.2422
     33 O         140.9709  140.4379  162.3216 O.2     1  UNL1       -0.2733
     34 C         140.2547  142.7240  163.3270 C.3     1  UNL1        0.1587
     35 N         140.6003  144.1174  163.7618 N.3     1  UNL1       -0.2624
     36 C         139.5385  145.0101  164.3323 C.3     1  UNL1        0.0901
     37 C         142.0078  144.6180  163.6260 C.3     1  UNL1        0.0909
     38 C         143.0696  143.7253  163.0554 C.3     1  UNL1        0.0754
     39 C         144.4136  143.2603  162.5783 C.3     1  UNL1        0.0213
     40 C         143.8819  144.9572  163.3245 C.3     1  UNL1        0.0213
@<TRIPOS>BOND
     1    26    27    1
     2    27    25    1
     3    25    24    1
     4    24    23    1
     5    23    15    1
     6    15    16   ar
     7    16    17   ar
     8    17     1    1
     9     1     2   am
    10     2     3    2
    11     2     4   am
    12     4     5    1
    13     5     6    1
    14     6     7    1
    15     7     8    1
    16     8     9   ar
    17     9    10   ar
    18    10    30    1
    19    30    31    1
    20    31    32   am
    21    32    33    2
    22    32    34    1
    23    34    35    1
    24    35    36    1
    25    35    37    1
    26    37    38    1
    27    38    39    1
    28    38    40    1
    29    10    11   ar
    30    11    28    1
    31    28    29    2
    32    11    12   ar
    33    12    13   ar
    34    17    18   ar
    35    18    19   ar
    36    19    20   ar
    37    20    21    1
    38    21    22    3
    39    20    15   ar
    40    13     4    1
    41    13     8   ar
    42    38    31    1
    43     1    14    1
@<TRIPOS>MOLECULE
*****
 40 43 0 0 0
SMALL
GASTEIGER

@<TRIPOS>ATOM
      1 N         143.7976  137.2615  154.7836 N.am    1  UNL1       -0.2531
      2 C         143.7961  138.1305  156.0063 C.2     1  UNL1        0.3135
      3 O         143.1092  137.6656  157.2560 O.2     1  UNL1       -0.2518
      4 N         144.4816  139.4645  155.9791 N.am    1  UNL1       -0.2282
      5 C         145.1685  139.9294  154.7293 C.3     1  UNL1        0.1015
      6 C         145.8539  141.2634  154.7022 C.3     1  UNL1        0.0268
      7 C         145.8525  142.1324  155.9248 C.3     1  UNL1        0.0310
      8 C         145.1656  141.6674  157.1746 C.ar    1  UNL1        0.0096
      9 C         145.1642  142.5364  158.3972 C.ar    1  UNL1       -0.0025
     10 C         144.4773  142.0715  159.6470 C.ar    1  UNL1        0.0184
     11 CA        143.7918  140.7375  159.6742 C.ar    1  UNL1        0.1224
     12 N         143.7932  139.8685  158.4515 N.ar    1  UNL1       -0.2275
     13 C         144.4802  140.3335  157.2017 C.ar    1  UNL1        0.1345
     14 H         144.2484  137.5667  153.9633 H       1  UNL1        0.1578
     15 C         142.5854  133.6929  156.0268 C.ar    1  UNL1        0.1525
     16 C         143.2708  135.0269  155.9997 C.ar    1  UNL1        0.0721
     17 C         143.1121  135.9276  154.8107 C.ar    1  UNL1        0.1384
     18 N         142.2680  135.4944  153.6490 N.ar    1  UNL1       -0.2281
     19 C         141.5825  134.1603  153.6761 C.ar    1  UNL1        0.1136
     20 C         141.7412  133.2597  154.8651 C.ar    1  UNL1        0.1215
     21 C         141.0558  131.9258  154.8922 C.1     1  UNL1        0.1051
     22 N         140.3703  130.5918  154.9193 N.1     1  UNL1       -0.1907
     23 O         142.7441  132.7923  157.2158 O.3     1  UNL1       -0.4719
     24 C         143.8573  131.7877  157.2523 C.3     1  UNL1        0.2373
     25 C         144.8437  131.7198  156.1242 C.3     1  UNL1        0.1894
     26 C         144.9123  129.2650  155.2762 C.3     1  UNL1        0.1743
     27 O         144.6544  130.7205  155.0216 O.3     1  UNL1       -0.3471
     28 C         143.1049  140.2725  160.9240 C.2     1  UNL1        0.2529
     29 O         141.6305  140.4894  161.0945 O.2     1  UNL1       -0.2815
     30 C         144.4758  142.9405  160.8697 C.3     1  UNL1        0.1217
     31 N         143.1863  143.5065  161.3859 N.am    1  UNL1       -0.2761
     32 C         142.1955  144.1060  160.4327 C.2     1  UNL1        0.2422
     33 O         142.4942  144.1395  158.9631 O.2     1  UNL1       -0.2733
     34 C         140.9058  144.6721  160.9489 C.3     1  UNL1        0.1587
     35 N         140.6071  144.6387  162.4185 N.3     1  UNL1       -0.2624
     36 C         139.3176  145.2047  162.9348 C.3     1  UNL1        0.0901
     37 C         141.5981  144.0391  163.3718 C.3     1  UNL1        0.0909
     38 C         142.8876  143.4731  162.8555 C.3     1  UNL1        0.0754
     39 C         144.2361  142.8162  162.8488 C.3     1  UNL1        0.0213
     40 C         143.0572  143.2115  164.3227 C.3     1  UNL1        0.0213
@<TRIPOS>BOND
     1    26    27    1
     2    27    25    1
     3    25    24    1
     4    24    23    1
     5    23    15    1
     6    15    16   ar
     7    16    17   ar
     8    17     1    1
     9     1     2   am
    10     2     3    2
    11     2     4   am
    12     4     5    1
    13     5     6    1
    14     6     7    1
    15     7     8    1
    16     8     9   ar
    17     9    10   ar
    18    10    30    1
    19    30    31    1
    20    31    32   am
    21    32    33    2
    22    32    34    1
    23    34    35    1
    24    35    36    1
    25    35    37    1
    26    37    38    1
    27    38    39    1
    28    38    40    1
    29    10    11   ar
    30    11    28    1
    31    28    29    2
    32    11    12   ar
    33    12    13   ar
    34    17    18   ar
    35    18    19   ar
    36    19    20   ar
    37    20    21    1
    38    21    22    3
    39    20    15   ar
    40    13     4    1
    41    13     8   ar
    42    38    31    1
    43     1    14    1
@<TRIPOS>MOLECULE
*****
 40 43 0 0 0
SMALL
GASTEIGER

@<TRIPOS>ATOM
      1 N         139.9606  140.0449  158.1879 N.am    1  UNL1       -0.2531
      2 C         139.7324  140.3583  159.6369 C.2     1  UNL1        0.3135
      3 O         138.7699  141.4404  160.0277 O.2     1  UNL1       -0.2518
      4 N         140.4667  139.5896  160.6952 N.am    1  UNL1       -0.2282
      5 C         141.4292  138.5076  160.3045 C.3     1  UNL1        0.1015
      6 C         142.1635  137.7389  161.3627 C.3     1  UNL1        0.0268
      7 C         141.9353  138.0523  162.8118 C.3     1  UNL1        0.0310
      8 C         140.9728  139.1344  163.2025 C.ar    1  UNL1        0.0096
      9 C         140.7446  139.4478  164.6516 C.ar    1  UNL1       -0.0025
     10 C         139.7821  140.5299  165.0423 C.ar    1  UNL1        0.0184
     11 CA        139.0478  141.2986  163.9840 C.ar    1  UNL1        0.1224
     12 N         139.2760  140.9852  162.5350 N.ar    1  UNL1       -0.2275
     13 C         140.2385  139.9030  162.1443 C.ar    1  UNL1        0.1345
     14 H         140.5923  139.3347  157.9315 H       1  UNL1        0.1578
     15 C         136.9993  141.4772  155.9678 C.ar    1  UNL1        0.1525
     16 C         137.7335  140.7086  157.0261 C.ar    1  UNL1        0.0721
     17 C         139.2263  140.8136  157.1296 C.ar    1  UNL1        0.1384
     18 N         139.9848  141.6872  156.1749 N.ar    1  UNL1       -0.2281
     19 C         139.2504  142.4559  155.1166 C.ar    1  UNL1        0.1136
     20 C         137.7577  142.3509  155.0131 C.ar    1  UNL1        0.1215
     21 C         137.0234  143.1195  153.9548 C.1     1  UNL1        0.1051
     22 N         136.2891  143.8883  152.8965 N.1     1  UNL1       -0.1907
     23 O         135.5066  141.3722  155.8643 O.3     1  UNL1       -0.4719
     24 C         134.8775  140.1139  155.3438 C.3     1  UNL1        0.2373
     25 C         133.7870  139.4421  156.1245 C.3     1  UNL1        0.1894
     26 C         133.0236  138.3727  158.3659 C.3     1  UNL1        0.1743
     27 O         133.8818  139.3501  157.6187 O.3     1  UNL1       -0.3471
     28 C         138.0853  142.3807  164.3748 C.2     1  UNL1        0.2529
     29 O         138.5887  143.7641  164.6628 O.2     1  UNL1       -0.2815
     30 C         139.5540  140.8433  166.4914 C.3     1  UNL1        0.1217
     31 N         140.7102  141.2254  167.3672 N.am    1  UNL1       -0.2761
     32 C         141.7720  142.1484  166.8471 C.2     1  UNL1        0.2422
     33 O         141.6777  142.6892  165.4512 O.2     1  UNL1       -0.2733
     34 C         142.9283  142.5305  167.7229 C.3     1  UNL1        0.1587
     35 N         143.0227  141.9897  169.1188 N.3     1  UNL1       -0.2624
     36 C         144.1789  142.3718  169.9946 C.3     1  UNL1        0.0901
     37 C         141.9607  141.0667  169.6389 C.3     1  UNL1        0.0909
     38 C         140.8045  140.6846  168.7631 C.3     1  UNL1        0.0754
     39 C         139.5270  140.0364  168.3184 C.3     1  UNL1        0.0213
     40 C         140.4552  139.9186  170.0046 C.3     1  UNL1        0.0213
@<TRIPOS>BOND
     1    26    27    1
     2    27    25    1
     3    25    24    1
     4    24    23    1
     5    23    15    1
     6    15    16   ar
     7    16    17   ar
     8    17     1    1
     9     1     2   am
    10     2     3    2
    11     2     4   am
    12     4     5    1
    13     5     6    1
    14     6     7    1
    15     7     8    1
    16     8     9   ar
    17     9    10   ar
    18    10    30    1
    19    30    31    1
    20    31    32   am
    21    32    33    2
    22    32    34    1
    23    34    35    1
    24    35    36    1
    25    35    37    1
    26    37    38    1
    27    38    39    1
    28    38    40    1
    29    10    11   ar
    30    11    28    1
    31    28    29    2
    32    11    12   ar
    33    12    13   ar
    34    17    18   ar
    35    18    19   ar
    36    19    20   ar
    37    20    21    1
    38    21    22    3
    39    20    15   ar
    40    13     4    1
    41    13     8   ar
    42    38    31    1
    43     1    14    1
@<TRIPOS>MOLECULE
*****
 40 43 0 0 0
SMALL
GASTEIGER

@<TRIPOS>ATOM
      1 N         143.3897  138.9233  157.5660 N.am    1  UNL1       -0.2531
      2 C         142.6742  139.0368  158.8795 C.2     1  UNL1        0.3135
      3 O         141.6313  138.0264  159.2552 O.2     1  UNL1       -0.2518
      4 N         143.0017  140.1609  159.8172 N.am    1  UNL1       -0.2282
      5 C         144.0446  141.1714  159.4414 C.3     1  UNL1        0.1015
      6 C         144.3720  142.2954  160.3791 C.3     1  UNL1        0.0268
      7 C         143.6565  142.4090  161.6926 C.3     1  UNL1        0.0310
      8 C         142.6136  141.3985  162.0683 C.ar    1  UNL1        0.0096
      9 C         141.8981  141.5121  163.3818 C.ar    1  UNL1       -0.0025
     10 C         140.8552  140.5016  163.7575 C.ar    1  UNL1        0.0184
     11 CA        140.5277  139.3775  162.8198 C.ar    1  UNL1        0.1224
     12 N         141.2432  139.2640  161.5064 N.ar    1  UNL1       -0.2275
     13 C         142.2862  140.2745  161.1306 C.ar    1  UNL1        0.1345
     14 H         144.0743  139.5865  157.3194 H       1  UNL1        0.1578
     15 C         141.3324  136.5028  155.1872 C.ar    1  UNL1        0.1525
     16 C         141.6598  137.6268  156.1250 C.ar    1  UNL1        0.0721
     17 C         143.0623  137.7993  156.6283 C.ar    1  UNL1        0.1384
     18 N         144.1374  136.8476  156.1939 N.ar    1  UNL1       -0.2281
     19 C         143.8099  135.7236  155.2562 C.ar    1  UNL1        0.1136
     20 C         142.4074  135.5512  154.7528 C.ar    1  UNL1        0.1215
     21 C         142.0800  134.4272  153.8151 C.1     1  UNL1        0.1051
     22 N         141.7526  133.3031  152.8774 N.1     1  UNL1       -0.1907
     23 O         139.9299  136.3304  154.6839 O.3     1  UNL1       -0.4719
     24 C         138.8824  137.3507  155.0182 C.3     1  UNL1        0.2373
     25 C         137.7070  137.5451  154.1067 C.3     1  UNL1        0.1894
     26 C         135.7097  139.1649  154.4771 C.3     1  UNL1        0.1743
     27 O         136.3500  137.8240  154.6819 O.3     1  UNL1       -0.3471
     28 C         139.4848  138.3671  163.1956 C.2     1  UNL1        0.2529
     29 O         138.3742  138.0446  162.2401 O.2     1  UNL1       -0.2815
     30 C         140.1397  140.6152  165.0710 C.3     1  UNL1        0.1217
     31 N         140.9205  140.6296  166.3516 N.am    1  UNL1       -0.2761
     32 C         141.8663  139.5086  166.6659 C.2     1  UNL1        0.2422
     33 O         142.0313  138.3732  165.6996 O.2     1  UNL1       -0.2733
     34 C         142.6472  139.5229  167.9466 C.3     1  UNL1        0.1587
     35 N         142.4822  140.6583  168.9129 N.3     1  UNL1       -0.2624
     36 C         143.2630  140.6727  170.1936 C.3     1  UNL1        0.0901
     37 C         141.5363  141.7793  168.5986 C.3     1  UNL1        0.0909
     38 C         140.7555  141.7649  167.3179 C.3     1  UNL1        0.0754
     39 C         139.8024  142.1969  166.2432 C.3     1  UNL1        0.0213
     40 C         140.2595  143.0503  167.9110 C.3     1  UNL1        0.0213
@<TRIPOS>BOND
     1    26    27    1
     2    27    25    1
     3    25    24    1
     4    24    23    1
     5    23    15    1
     6    15    16   ar
     7    16    17   ar
     8    17     1    1
     9     1     2   am
    10     2     3    2
    11     2     4   am
    12     4     5    1
    13     5     6    1
    14     6     7    1
    15     7     8    1
    16     8     9   ar
    17     9    10   ar
    18    10    30    1
    19    30    31    1
    20    31    32   am
    21    32    33    2
    22    32    34    1
    23    34    35    1
    24    35    36    1
    25    35    37    1
    26    37    38    1
    27    38    39    1
    28    38    40    1
    29    10    11   ar
    30    11    28    1
    31    28    29    2
    32    11    12   ar
    33    12    13   ar
    34    17    18   ar
    35    18    19   ar
    36    19    20   ar
    37    20    21    1
    38    21    22    3
    39    20    15   ar
    40    13     4    1
    41    13     8   ar
    42    38    31    1
    43     1    14    1
