@<TRIPOS>MOLECULE
*****
 43 48 0 0 0
SMALL
GASTEIGER

@<TRIPOS>ATOM
      1 C         137.8554  143.0059  162.9509 C.3     1  UNL1        0.0932
      2 C         138.1157  142.7849  161.4903 C.3     1  UNL1        0.0286
      3 C         138.1429  141.3915  160.9357 C.3     1  UNL1        0.0193
      4 C         137.9097  140.2190  161.8418 C.3     1  UNL1        0.0700
      5 C         137.6494  140.4399  163.3024 C.3     1  UNL1        0.0193
      6 C         137.6223  141.8334  163.8569 C.3     1  UNL1        0.0286
      7 C         137.8853  140.9639  162.1915 C.3     1  UNL1        0.1562
      8 O         137.8607  142.2239  162.6930 O.3     1  UNL1       -0.3572
      9 N         137.9369  138.8255  161.2872 N.3     1  UNL1       -0.2926
     10 H         137.3813  138.8382  160.4319 H       1  UNL1        0.1236
     11 C         139.2468  138.1806  160.9431 C.3     1  UNL1        0.1152
     12 C         140.4197  138.3257  161.8668 C.ar    1  UNL1        0.0765
     13 C         140.5253  137.4594  163.0868 C.ar    1  UNL1        0.0193
     14 C         141.6982  137.6045  164.0105 C.ar    1  UNL1        0.0411
     15 C         142.7655  138.6159  163.7142 C.ar    1  UNL1        0.1708
     16 C         142.6600  139.4822  162.4943 C.ar    1  UNL1        0.1682
     17 N         141.4870  139.3372  161.5705 N.ar    1  UNL1       -0.2304
     18 N         143.7273  140.4937  162.1980 N.am    1  UNL1       -0.2639
     19 C         144.9002  140.6388  163.1217 C.2     1  UNL1        0.2718
     20 O         145.9676  141.6502  162.8254 O.2     1  UNL1       -0.2707
     21 C         145.0058  139.7724  164.3417 C.3     1  UNL1        0.2898
     22 O         143.9385  138.7609  164.6380 O.3     1  UNL1       -0.4628
     23 H         143.6580  141.0623  161.3973 H       1  UNL1        0.1565
     24 C         137.8282  144.3993  163.5055 C.3     1  UNL1        0.0320
     25 C         138.8960  144.8481  164.4587 C.3     1  UNL1        0.0327
     26 C         140.8256  141.9390  167.2983 C.ar    1  UNL1        0.2249
     27 C         142.2483  141.5143  167.0849 C.ar    1  UNL1        0.0593
     28 C         143.0278  142.0593  165.9250 C.ar    1  UNL1        0.0254
     29 C         142.3846  143.0290  164.9785 C.ar    1  UNL1        0.0990
     30 N         143.1641  143.5740  163.8186 N.ar    1  UNL1       -0.2400
     31 C         142.5209  144.5437  162.8721 C.ar    1  UNL1        0.1281
     32 C         141.0981  144.9684  163.0854 C.ar    1  UNL1        0.1566
     33 F         140.4549  145.9381  162.1389 F       1  UNL1       -0.2028
     34 C         140.3187  144.4234  164.2453 C.ar    1  UNL1        0.0261
     35 C         140.9619  143.4537  165.1919 C.ar    1  UNL1        0.1002
     36 N         140.1824  142.9087  166.3518 N.ar    1  UNL1       -0.2104
     37 O         140.0462  141.3940  168.4582 O.3     1  UNL1       -0.4602
     38 C         139.3288  140.0829  168.3300 C.3     1  UNL1        0.2085
     39 C         139.1795  139.4382  166.9839 C.3     1  UNL1        0.0642
     40 N         137.1341  137.9177  167.4882 N.3     1  UNL1       -0.3210
     41 C         137.8585  138.8589  166.5721 C.3     1  UNL1        0.0690
     42 H         136.2601  137.6239  167.0520 H       1  UNL1        0.1189
     43 H         136.9323  138.3893  168.3699 H       1  UNL1        0.1189
@<TRIPOS>BOND
     1    40    41    1
     2    41    39    1
     3    39    38    1
     4    38    37    1
     5    37    26    1
     6    26    27   ar
     7    27    28   ar
     8    28    29   ar
     9    29    30   ar
    10    30    31   ar
    11    31    32   ar
    12    32    33    1
    13    32    34   ar
    14    34    25    1
    15    25    24    1
    16    24     1    1
    17     1     2    1
    18     2     3    1
    19     3     4    1
    20     4     9    1
    21     9    11    1
    22    11    12    1
    23    12    13   ar
    24    13    14   ar
    25    14    15   ar
    26    15    16   ar
    27    16    17   ar
    28    16    18    1
    29    18    19   am
    30    19    20    2
    31    19    21    1
    32    21    22    1
    33     4     5    1
    34     5     6    1
    35     4     7    1
    36     7     8    1
    37    34    35   ar
    38    35    36   ar
    39    36    26   ar
    40    35    29   ar
    41     6     1    1
    42     8     1    1
    43    17    12   ar
    44    22    15    1
    45    40    42    1
    46    40    43    1
    47     9    10    1
    48    18    23    1
@<TRIPOS>MOLECULE
*****
 43 48 0 0 0
SMALL
GASTEIGER

@<TRIPOS>ATOM
      1 C         141.7843  138.0491  164.1082 C.3     1  UNL1        0.0932
      2 C         142.0069  138.5127  162.6991 C.3     1  UNL1        0.0286
      3 C         143.2296  139.3112  162.3566 C.3     1  UNL1        0.0193
      4 C         144.2297  139.6461  163.4232 C.3     1  UNL1        0.0700
      5 C         144.0071  139.1825  164.8323 C.3     1  UNL1        0.0193
      6 C         142.7843  138.3839  165.1748 C.3     1  UNL1        0.0286
      7 C         143.5749  139.2061  163.6589 C.3     1  UNL1        0.1562
      8 O         142.4693  138.4841  163.9687 O.3     1  UNL1       -0.3572
      9 N         145.4524  140.4446  163.0807 N.3     1  UNL1       -0.2926
     10 H         145.5672  140.3879  162.0688 H       1  UNL1        0.1236
     11 C         145.5251  141.8981  163.4440 C.3     1  UNL1        0.1152
     12 C         144.3258  142.7791  163.2554 C.ar    1  UNL1        0.0765
     13 C         143.6001  143.3239  164.4498 C.ar    1  UNL1        0.0193
     14 C         142.4009  144.2050  164.2612 C.ar    1  UNL1        0.0411
     15 C         141.9273  144.5413  162.8782 C.ar    1  UNL1        0.1708
     16 C         142.6530  143.9965  161.6838 C.ar    1  UNL1        0.1682
     17 N         143.8523  143.1155  161.8724 N.ar    1  UNL1       -0.2304
     18 N         142.1795  144.3329  160.3008 N.am    1  UNL1       -0.2639
     19 C         140.9803  145.2139  160.1122 C.2     1  UNL1        0.2718
     20 O         140.5067  145.5502  158.7293 O.2     1  UNL1       -0.2707
     21 C         140.2545  145.7587  161.3067 C.3     1  UNL1        0.2898
     22 O         140.7280  145.4223  162.6897 O.3     1  UNL1       -0.4628
     23 H         142.6558  143.9753  159.5169 H       1  UNL1        0.1565
     24 C         140.5616  137.2506  164.4507 C.3     1  UNL1        0.0320
     25 C         139.3497  137.9365  165.0083 C.3     1  UNL1        0.0327
     26 C         140.7443  141.1907  167.7859 C.ar    1  UNL1        0.2249
     27 C         140.4758  142.6281  167.4517 C.ar    1  UNL1        0.0593
     28 C         139.7425  142.9808  166.1916 C.ar    1  UNL1        0.0254
     29 C         139.2776  141.8961  165.2658 C.ar    1  UNL1        0.0990
     30 N         138.5442  142.2488  164.0057 N.ar    1  UNL1       -0.2400
     31 C         138.0793  141.1641  163.0798 C.ar    1  UNL1        0.1281
     32 C         138.3478  139.7266  163.4140 C.ar    1  UNL1        0.1566
     33 F         137.8829  138.6419  162.4882 F       1  UNL1       -0.2028
     34 C         139.0812  139.3739  164.6741 C.ar    1  UNL1        0.0261
     35 C         139.5461  140.4587  165.6000 C.ar    1  UNL1        0.1002
     36 N         140.2794  140.1060  166.8600 N.ar    1  UNL1       -0.2104
     37 O         141.4777  140.8380  169.0460 O.3     1  UNL1       -0.4602
     38 C         142.9719  140.9569  169.1024 C.3     1  UNL1        0.2085
     39 C         143.6051  142.2054  169.6411 C.3     1  UNL1        0.0642
     40 N         142.1577  142.4929  171.7794 N.3     1  UNL1       -0.3210
     41 C         142.8410  143.0873  170.5837 C.3     1  UNL1        0.0690
     42 H         141.6901  143.2311  172.3057 H       1  UNL1        0.1189
     43 H         142.8494  142.0370  172.3745 H       1  UNL1        0.1189
@<TRIPOS>BOND
     1    40    41    1
     2    41    39    1
     3    39    38    1
     4    38    37    1
     5    37    26    1
     6    26    27   ar
     7    27    28   ar
     8    28    29   ar
     9    29    30   ar
    10    30    31   ar
    11    31    32   ar
    12    32    33    1
    13    32    34   ar
    14    34    25    1
    15    25    24    1
    16    24     1    1
    17     1     2    1
    18     2     3    1
    19     3     4    1
    20     4     9    1
    21     9    11    1
    22    11    12    1
    23    12    13   ar
    24    13    14   ar
    25    14    15   ar
    26    15    16   ar
    27    16    17   ar
    28    16    18    1
    29    18    19   am
    30    19    20    2
    31    19    21    1
    32    21    22    1
    33     4     5    1
    34     5     6    1
    35     4     7    1
    36     7     8    1
    37    34    35   ar
    38    35    36   ar
    39    36    26   ar
    40    35    29   ar
    41     6     1    1
    42     8     1    1
    43    17    12   ar
    44    22    15    1
    45    40    42    1
    46    40    43    1
    47     9    10    1
    48    18    23    1
@<TRIPOS>MOLECULE
*****
 43 48 0 0 0
SMALL
GASTEIGER

@<TRIPOS>ATOM
      1 C         142.0492  138.0254  164.1074 C.3     1  UNL1        0.0932
      2 C         142.2788  138.3489  162.6608 C.3     1  UNL1        0.0286
      3 C         143.4530  139.1908  162.2578 C.3     1  UNL1        0.0193
      4 C         144.3976  139.7092  163.3014 C.3     1  UNL1        0.0700
      5 C         144.1680  139.3857  164.7480 C.3     1  UNL1        0.0193
      6 C         142.9937  138.5438  165.1510 C.3     1  UNL1        0.0286
      7 C         143.7682  139.2518  163.5706 C.3     1  UNL1        0.1562
      8 O         142.7064  138.4905  163.9350 O.3     1  UNL1       -0.3572
      9 N         145.5718  140.5511  162.8984 N.3     1  UNL1       -0.2926
     10 H         145.5998  140.5486  161.8788 H       1  UNL1        0.1236
     11 C         145.6497  141.9855  163.3302 C.3     1  UNL1        0.1152
     12 C         144.4486  142.8745  163.1991 C.ar    1  UNL1        0.0765
     13 C         143.8226  143.4747  164.4230 C.ar    1  UNL1        0.0193
     14 C         142.6216  144.3637  164.2920 C.ar    1  UNL1        0.0411
     15 C         142.0465  144.6524  162.9370 C.ar    1  UNL1        0.1708
     16 C         142.6724  144.0522  161.7131 C.ar    1  UNL1        0.1682
     17 N         143.8735  143.1632  161.8442 N.ar    1  UNL1       -0.2304
     18 N         142.0973  144.3410  160.3582 N.am    1  UNL1       -0.2639
     19 C         140.8963  145.2299  160.2271 C.2     1  UNL1        0.2718
     20 O         140.3212  145.5187  158.8722 O.2     1  UNL1       -0.2707
     21 C         140.2703  145.8302  161.4511 C.3     1  UNL1        0.2898
     22 O         140.8454  145.5414  162.8060 O.3     1  UNL1       -0.4628
     23 H         142.5082  143.9470  159.5549 H       1  UNL1        0.1565
     24 C         140.8750  137.1835  164.5104 C.3     1  UNL1        0.0320
     25 C         139.5898  137.8375  164.9238 C.3     1  UNL1        0.0327
     26 C         140.2929  141.9425  166.6281 C.ar    1  UNL1        0.2249
     27 C         139.7981  143.1538  165.8949 C.ar    1  UNL1        0.0593
     28 C         139.0689  142.9969  164.5935 C.ar    1  UNL1        0.0254
     29 C         138.8345  141.6286  164.0253 C.ar    1  UNL1        0.0990
     30 N         138.1053  141.4716  162.7239 N.ar    1  UNL1       -0.2400
     31 C         137.8709  140.1034  162.1558 C.ar    1  UNL1        0.1281
     32 C         138.3658  138.8919  162.8891 C.ar    1  UNL1        0.1566
     33 F         138.1314  137.5236  162.3210 F       1  UNL1       -0.2028
     34 C         139.0950  139.0489  164.1905 C.ar    1  UNL1        0.0261
     35 C         139.3293  140.4173  164.7586 C.ar    1  UNL1        0.1002
     36 N         140.0585  140.5742  166.0600 N.ar    1  UNL1       -0.2104
     37 O         141.0221  142.0994  167.9295 O.3     1  UNL1       -0.4602
     38 C         140.3546  142.7836  169.0855 C.3     1  UNL1        0.2085
     39 C         139.8439  141.9760  170.2418 C.3     1  UNL1        0.0642
     40 N         139.0714  139.8239  169.0081 N.3     1  UNL1       -0.3210
     41 C         139.7936  140.4797  170.1475 C.3     1  UNL1        0.0690
     42 H         139.1379  138.8104  169.1017 H       1  UNL1        0.1189
     43 H         139.4949  140.1123  168.1261 H       1  UNL1        0.1189
@<TRIPOS>BOND
     1    40    41    1
     2    41    39    1
     3    39    38    1
     4    38    37    1
     5    37    26    1
     6    26    27   ar
     7    27    28   ar
     8    28    29   ar
     9    29    30   ar
    10    30    31   ar
    11    31    32   ar
    12    32    33    1
    13    32    34   ar
    14    34    25    1
    15    25    24    1
    16    24     1    1
    17     1     2    1
    18     2     3    1
    19     3     4    1
    20     4     9    1
    21     9    11    1
    22    11    12    1
    23    12    13   ar
    24    13    14   ar
    25    14    15   ar
    26    15    16   ar
    27    16    17   ar
    28    16    18    1
    29    18    19   am
    30    19    20    2
    31    19    21    1
    32    21    22    1
    33     4     5    1
    34     5     6    1
    35     4     7    1
    36     7     8    1
    37    34    35   ar
    38    35    36   ar
    39    36    26   ar
    40    35    29   ar
    41     6     1    1
    42     8     1    1
    43    17    12   ar
    44    22    15    1
    45    40    42    1
    46    40    43    1
    47     9    10    1
    48    18    23    1
@<TRIPOS>MOLECULE
*****
 43 48 0 0 0
SMALL
GASTEIGER

@<TRIPOS>ATOM
      1 C         139.9019  137.9996  164.4356 C.3     1  UNL1        0.0932
      2 C         139.6773  137.8356  162.9616 C.3     1  UNL1        0.0286
      3 C         140.8493  137.7358  162.0309 C.3     1  UNL1        0.0193
      4 C         142.2461  137.8001  162.5741 C.3     1  UNL1        0.0700
      5 C         142.4707  137.9641  164.0481 C.3     1  UNL1        0.0193
      6 C         141.2986  138.0639  164.9788 C.3     1  UNL1        0.0286
      7 C         141.6354  137.8592  163.1232 C.3     1  UNL1        0.1562
      8 O         140.5756  137.9494  163.9648 O.3     1  UNL1       -0.3572
      9 N         143.4181  137.7003  161.6433 N.3     1  UNL1       -0.2926
     10 H         143.2164  136.9378  160.9965 H       1  UNL1        0.1236
     11 C         143.8162  138.8817  160.8093 C.3     1  UNL1        0.1152
     12 C         143.6235  140.2721  161.3380 C.ar    1  UNL1        0.0765
     13 C         142.7446  141.2394  160.6018 C.ar    1  UNL1        0.0193
     14 C         142.5519  142.6298  161.1306 C.ar    1  UNL1        0.0411
     15 C         143.2381  143.0530  162.3955 C.ar    1  UNL1        0.1708
     16 C         144.1170  142.0858  163.1317 C.ar    1  UNL1        0.1682
     17 N         144.3097  140.6954  162.6029 N.ar    1  UNL1       -0.2304
     18 N         144.8032  142.5091  164.3966 N.am    1  UNL1       -0.2639
     19 C         144.6105  143.8994  164.9253 C.2     1  UNL1        0.2718
     20 O         145.2967  144.3227  166.1902 O.2     1  UNL1       -0.2707
     21 C         143.7315  144.8667  164.1891 C.3     1  UNL1        0.2898
     22 O         143.0453  144.4435  162.9242 O.3     1  UNL1       -0.4628
     23 H         145.3801  141.8742  164.8797 H       1  UNL1        0.1565
     24 C         138.7299  138.0994  165.3663 C.3     1  UNL1        0.0320
     25 C         138.0863  139.4301  165.6220 C.3     1  UNL1        0.0327
     26 C         138.4563  142.9081  162.7906 C.ar    1  UNL1        0.2249
     27 C         139.3009  144.0907  163.1618 C.ar    1  UNL1        0.0593
     28 C         140.0222  144.1141  164.4768 C.ar    1  UNL1        0.0254
     29 C         139.8989  142.9548  165.4206 C.ar    1  UNL1        0.0990
     30 N         140.6202  142.9782  166.7356 N.ar    1  UNL1       -0.2400
     31 C         140.4969  141.8189  167.6794 C.ar    1  UNL1        0.1281
     32 C         139.6522  140.6361  167.3082 C.ar    1  UNL1        0.1566
     33 F         139.5289  139.4768  168.2520 F       1  UNL1       -0.2028
     34 C         138.9309  140.6127  165.9932 C.ar    1  UNL1        0.0261
     35 C         139.0543  141.7721  165.0494 C.ar    1  UNL1        0.1002
     36 N         138.3330  141.7488  163.7344 N.ar    1  UNL1       -0.2104
     37 O         137.7350  142.8847  161.4757 O.3     1  UNL1       -0.4602
     38 C         138.4916  142.6101  160.2100 C.3     1  UNL1        0.2085
     39 C         138.4255  141.2523  159.5761 C.3     1  UNL1        0.0642
     40 N         136.9905  140.0554  161.3812 N.3     1  UNL1       -0.3210
     41 C         138.1409  140.0443  160.4187 C.3     1  UNL1        0.0690
     42 H         136.9449  139.1596  161.8668 H       1  UNL1        0.1189
     43 H         136.1212  140.2098  160.8703 H       1  UNL1        0.1189
@<TRIPOS>BOND
     1    40    41    1
     2    41    39    1
     3    39    38    1
     4    38    37    1
     5    37    26    1
     6    26    27   ar
     7    27    28   ar
     8    28    29   ar
     9    29    30   ar
    10    30    31   ar
    11    31    32   ar
    12    32    33    1
    13    32    34   ar
    14    34    25    1
    15    25    24    1
    16    24     1    1
    17     1     2    1
    18     2     3    1
    19     3     4    1
    20     4     9    1
    21     9    11    1
    22    11    12    1
    23    12    13   ar
    24    13    14   ar
    25    14    15   ar
    26    15    16   ar
    27    16    17   ar
    28    16    18    1
    29    18    19   am
    30    19    20    2
    31    19    21    1
    32    21    22    1
    33     4     5    1
    34     5     6    1
    35     4     7    1
    36     7     8    1
    37    34    35   ar
    38    35    36   ar
    39    36    26   ar
    40    35    29   ar
    41     6     1    1
    42     8     1    1
    43    17    12   ar
    44    22    15    1
    45    40    42    1
    46    40    43    1
    47     9    10    1
    48    18    23    1
@<TRIPOS>MOLECULE
*****
 43 48 0 0 0
SMALL
GASTEIGER

@<TRIPOS>ATOM
      1 C         142.8486  144.5310  163.5207 C.3     1  UNL1        0.0932
      2 C         141.4563  144.8116  164.0032 C.3     1  UNL1        0.0286
      3 C         140.2818  144.5138  163.1190 C.3     1  UNL1        0.0193
      4 C         140.4996  143.9354  161.7522 C.3     1  UNL1        0.0700
      5 C         141.8919  143.6548  161.2697 C.3     1  UNL1        0.0193
      6 C         143.0664  143.9526  162.1539 C.3     1  UNL1        0.0286
      7 C         141.1743  144.0819  162.2007 C.3     1  UNL1        0.1562
      8 O         142.2364  144.3512  163.0002 O.3     1  UNL1       -0.3572
      9 N         139.3251  143.6377  160.8680 N.3     1  UNL1       -0.2926
     10 H         139.6807  143.1008  160.0770 H       1  UNL1        0.1236
     11 C         138.1498  142.8807  161.4118 C.3     1  UNL1        0.1152
     12 C         138.3579  141.5606  162.0929 C.ar    1  UNL1        0.0765
     13 C         138.9613  140.4137  161.3375 C.ar    1  UNL1        0.0193
     14 C         139.1695  139.0936  162.0187 C.ar    1  UNL1        0.0411
     15 C         138.7743  138.9204  163.4553 C.ar    1  UNL1        0.1708
     16 C         138.1709  140.0672  164.2107 C.ar    1  UNL1        0.1682
     17 N         137.9627  141.3874  163.5295 N.ar    1  UNL1       -0.2304
     18 N         137.7757  139.8940  165.6473 N.am    1  UNL1       -0.2639
     19 C         137.9839  138.5739  166.3285 C.2     1  UNL1        0.2718
     20 O         137.5887  138.4006  167.7650 O.2     1  UNL1       -0.2707
     21 C         138.5873  137.4270  165.5730 C.3     1  UNL1        0.2898
     22 O         138.9824  137.6002  164.1364 O.3     1  UNL1       -0.4628
     23 H         137.3797  140.6467  166.1431 H       1  UNL1        0.1565
     24 C         144.0231  144.8288  164.4048 C.3     1  UNL1        0.0320
     25 C         144.6469  143.7331  165.2176 C.3     1  UNL1        0.0327
     26 C         141.1951  142.0198  167.5412 C.ar    1  UNL1        0.2249
     27 C         140.7787  140.5952  167.3246 C.ar    1  UNL1        0.0593
     28 C         141.5128  139.7416  166.3334 C.ar    1  UNL1        0.0254
     29 C         142.6634  140.3127  165.5588 C.ar    1  UNL1        0.0990
     30 N         143.3976  139.4592  164.5676 N.ar    1  UNL1       -0.2400
     31 C         144.5482  140.0303  163.7931 C.ar    1  UNL1        0.1281
     32 C         144.9647  141.4550  164.0097 C.ar    1  UNL1        0.1566
     33 F         146.1152  142.0260  163.2352 F       1  UNL1       -0.2028
     34 C         144.2305  142.3085  165.0009 C.ar    1  UNL1        0.0261
     35 C         143.0799  141.7373  165.7755 C.ar    1  UNL1        0.1002
     36 N         142.3457  142.5909  166.7667 N.ar    1  UNL1       -0.2104
     37 O         140.4610  142.8733  168.5324 O.3     1  UNL1       -0.4602
     38 C         140.3271  142.4223  169.9567 C.3     1  UNL1        0.2085
     39 C         141.5539  142.1455  170.7742 C.3     1  UNL1        0.0642
     40 N         143.3167  143.9975  171.2353 N.3     1  UNL1       -0.3210
     41 C         142.8501  142.8189  170.4332 C.3     1  UNL1        0.0690
     42 H         144.2093  144.3270  170.8677 H       1  UNL1        0.1189
     43 H         143.4317  143.7211  172.2104 H       1  UNL1        0.1189
@<TRIPOS>BOND
     1    40    41    1
     2    41    39    1
     3    39    38    1
     4    38    37    1
     5    37    26    1
     6    26    27   ar
     7    27    28   ar
     8    28    29   ar
     9    29    30   ar
    10    30    31   ar
    11    31    32   ar
    12    32    33    1
    13    32    34   ar
    14    34    25    1
    15    25    24    1
    16    24     1    1
    17     1     2    1
    18     2     3    1
    19     3     4    1
    20     4     9    1
    21     9    11    1
    22    11    12    1
    23    12    13   ar
    24    13    14   ar
    25    14    15   ar
    26    15    16   ar
    27    16    17   ar
    28    16    18    1
    29    18    19   am
    30    19    20    2
    31    19    21    1
    32    21    22    1
    33     4     5    1
    34     5     6    1
    35     4     7    1
    36     7     8    1
    37    34    35   ar
    38    35    36   ar
    39    36    26   ar
    40    35    29   ar
    41     6     1    1
    42     8     1    1
    43    17    12   ar
    44    22    15    1
    45    40    42    1
    46    40    43    1
    47     9    10    1
    48    18    23    1
@<TRIPOS>MOLECULE
*****
 43 48 0 0 0
SMALL
GASTEIGER

@<TRIPOS>ATOM
      1 C         137.9031  142.6831  163.8461 C.3     1  UNL1        0.0932
      2 C         138.0820  141.4642  164.7019 C.3     1  UNL1        0.0286
      3 C         138.0896  140.1018  164.0744 C.3     1  UNL1        0.0193
      4 C         137.9184  139.9582  162.5911 C.3     1  UNL1        0.0700
      5 C         137.7395  141.1771  161.7353 C.3     1  UNL1        0.0193
      6 C         137.7319  142.5395  162.3628 C.3     1  UNL1        0.0286
      7 C         137.9074  140.7255  162.8895 C.3     1  UNL1        0.1562
      8 O         137.9005  141.9575  163.4568 O.3     1  UNL1       -0.3572
      9 N         137.9260  138.5958  161.9637 N.3     1  UNL1       -0.2926
     10 H         137.1719  138.5836  161.2770 H       1  UNL1        0.1236
     11 C         139.1565  138.0990  161.2644 C.3     1  UNL1        0.1152
     12 C         140.5119  138.3746  161.8448 C.ar    1  UNL1        0.0765
     13 C         141.5900  138.9653  160.9852 C.ar    1  UNL1        0.0193
     14 C         142.9454  139.2409  161.5656 C.ar    1  UNL1        0.0411
     15 C         143.2227  138.9257  163.0057 C.ar    1  UNL1        0.1708
     16 C         142.1448  138.3350  163.8653 C.ar    1  UNL1        0.1682
     17 N         140.7893  138.0594  163.2848 N.ar    1  UNL1       -0.2304
     18 N         142.4222  138.0199  165.3053 N.am    1  UNL1       -0.2639
     19 C         143.7775  138.2955  165.8858 C.2     1  UNL1        0.2718
     20 O         144.0549  137.9804  167.3258 O.2     1  UNL1       -0.2707
     21 C         144.8556  138.8862  165.0261 C.3     1  UNL1        0.2898
     22 O         144.5782  139.2014  163.5861 O.3     1  UNL1       -0.4628
     23 H         141.7146  137.6322  165.8695 H       1  UNL1        0.1565
     24 C         137.8955  144.0455  164.4735 C.3     1  UNL1        0.0320
     25 C         139.1905  144.7424  164.7691 C.3     1  UNL1        0.0327
     26 C         142.8519  142.4089  165.9518 C.ar    1  UNL1        0.2249
     27 C         144.0038  142.2870  164.9988 C.ar    1  UNL1        0.0593
     28 C         143.9352  142.9429  163.6515 C.ar    1  UNL1        0.0254
     29 C         142.7148  143.7207  163.2573 C.ar    1  UNL1        0.0990
     30 N         142.6462  144.3766  161.9101 N.ar    1  UNL1       -0.2400
     31 C         141.4257  145.1545  161.5158 C.ar    1  UNL1        0.1281
     32 C         140.2738  145.2764  162.4689 C.ar    1  UNL1        0.1566
     33 F         139.0533  146.0542  162.0746 F       1  UNL1       -0.2028
     34 C         140.3424  144.6205  163.8161 C.ar    1  UNL1        0.0261
     35 C         141.5629  143.8426  164.2103 C.ar    1  UNL1        0.1002
     36 N         141.6315  143.1867  165.5576 N.ar    1  UNL1       -0.2104
     37 O         142.9205  141.7530  167.2990 O.3     1  UNL1       -0.4602
     38 C         141.7254  141.7741  168.2052 C.3     1  UNL1        0.2085
     39 C         141.8190  141.1904  169.5838 C.3     1  UNL1        0.0642
     40 N         142.8436  138.8073  169.7294 N.3     1  UNL1       -0.3210
     41 C         141.6498  139.7137  169.7860 C.3     1  UNL1        0.0690
     42 H         142.5471  137.8442  169.8873 H       1  UNL1        0.1189
     43 H         143.5119  139.0798  170.4502 H       1  UNL1        0.1189
@<TRIPOS>BOND
     1    40    41    1
     2    41    39    1
     3    39    38    1
     4    38    37    1
     5    37    26    1
     6    26    27   ar
     7    27    28   ar
     8    28    29   ar
     9    29    30   ar
    10    30    31   ar
    11    31    32   ar
    12    32    33    1
    13    32    34   ar
    14    34    25    1
    15    25    24    1
    16    24     1    1
    17     1     2    1
    18     2     3    1
    19     3     4    1
    20     4     9    1
    21     9    11    1
    22    11    12    1
    23    12    13   ar
    24    13    14   ar
    25    14    15   ar
    26    15    16   ar
    27    16    17   ar
    28    16    18    1
    29    18    19   am
    30    19    20    2
    31    19    21    1
    32    21    22    1
    33     4     5    1
    34     5     6    1
    35     4     7    1
    36     7     8    1
    37    34    35   ar
    38    35    36   ar
    39    36    26   ar
    40    35    29   ar
    41     6     1    1
    42     8     1    1
    43    17    12   ar
    44    22    15    1
    45    40    42    1
    46    40    43    1
    47     9    10    1
    48    18    23    1
@<TRIPOS>MOLECULE
*****
 43 48 0 0 0
SMALL
GASTEIGER

@<TRIPOS>ATOM
      1 C         139.1306  142.9435  163.6798 C.3     1  UNL1        0.0932
      2 C         139.5332  143.1305  162.2470 C.3     1  UNL1        0.0286
      3 C         140.7813  143.8920  161.9119 C.3     1  UNL1        0.0193
      4 C         141.6269  144.4665  163.0096 C.3     1  UNL1        0.0700
      5 C         141.2243  144.2795  164.4424 C.3     1  UNL1        0.0193
      6 C         139.9761  143.5180  164.7775 C.3     1  UNL1        0.0286
      7 C         140.9517  144.0568  163.2423 C.3     1  UNL1        0.1562
      8 O         139.8231  143.3683  163.5454 O.3     1  UNL1       -0.3572
      9 N         142.8750  145.2280  162.6745 N.3     1  UNL1       -0.2926
     10 H         142.9512  145.9830  163.3561 H       1  UNL1        0.1236
     11 C         144.2002  144.5254  162.6565 C.3     1  UNL1        0.1152
     12 C         144.2541  143.0268  162.6244 C.ar    1  UNL1        0.0765
     13 C         144.7323  142.2675  163.8266 C.ar    1  UNL1        0.0193
     14 C         144.7862  140.7689  163.7945 C.ar    1  UNL1        0.0411
     15 C         144.3621  140.0294  162.5603 C.ar    1  UNL1        0.1708
     16 C         143.8840  140.7885  161.3582 C.ar    1  UNL1        0.1682
     17 N         143.8300  142.2873  161.3902 N.ar    1  UNL1       -0.2304
     18 N         143.4599  140.0490  160.1240 N.am    1  UNL1       -0.2639
     19 C         143.5139  138.5504  160.0919 C.2     1  UNL1        0.2718
     20 O         143.0898  137.8109  158.8577 O.2     1  UNL1       -0.2707
     21 C         143.9920  137.7911  161.2940 C.3     1  UNL1        0.2898
     22 O         144.4161  138.5306  162.5282 O.3     1  UNL1       -0.4628
     23 H         143.1461  140.5473  159.3350 H       1  UNL1        0.1565
     24 C         137.8825  142.1821  164.0149 C.3     1  UNL1        0.0320
     25 C         137.9760  140.8633  164.7237 C.3     1  UNL1        0.0327
     26 C         141.7519  140.1450  167.0637 C.ar    1  UNL1        0.2249
     27 C         142.7365  139.1126  166.6004 C.ar    1  UNL1        0.0593
     28 C         142.4623  138.3196  165.3570 C.ar    1  UNL1        0.0254
     29 C         141.2037  138.5590  164.5770 C.ar    1  UNL1        0.0990
     30 N         140.9296  137.7660  163.3336 N.ar    1  UNL1       -0.2400
     31 C         139.6710  138.0055  162.5536 C.ar    1  UNL1        0.1281
     32 C         138.6864  139.0379  163.0169 C.ar    1  UNL1        0.1566
     33 F         137.4277  139.2774  162.2369 F       1  UNL1       -0.2028
     34 C         138.9605  139.8309  164.2603 C.ar    1  UNL1        0.0261
     35 C         140.2192  139.5914  165.0403 C.ar    1  UNL1        0.1002
     36 N         140.4933  140.3844  166.2837 N.ar    1  UNL1       -0.2104
     37 O         142.0261  140.9380  168.3071 O.3     1  UNL1       -0.4602
     38 C         141.1663  142.1188  168.6484 C.3     1  UNL1        0.2085
     39 C         140.2425  142.0578  169.8287 C.3     1  UNL1        0.0642
     40 N         140.7225  140.5668  171.9016 N.3     1  UNL1       -0.3210
     41 C         140.0588  140.7675  170.5714 C.3     1  UNL1        0.0690
     42 H         140.4913  139.6405  172.2606 H       1  UNL1        0.1189
     43 H         140.3940  141.2769  172.5560 H       1  UNL1        0.1189
@<TRIPOS>BOND
     1    40    41    1
     2    41    39    1
     3    39    38    1
     4    38    37    1
     5    37    26    1
     6    26    27   ar
     7    27    28   ar
     8    28    29   ar
     9    29    30   ar
    10    30    31   ar
    11    31    32   ar
    12    32    33    1
    13    32    34   ar
    14    34    25    1
    15    25    24    1
    16    24     1    1
    17     1     2    1
    18     2     3    1
    19     3     4    1
    20     4     9    1
    21     9    11    1
    22    11    12    1
    23    12    13   ar
    24    13    14   ar
    25    14    15   ar
    26    15    16   ar
    27    16    17   ar
    28    16    18    1
    29    18    19   am
    30    19    20    2
    31    19    21    1
    32    21    22    1
    33     4     5    1
    34     5     6    1
    35     4     7    1
    36     7     8    1
    37    34    35   ar
    38    35    36   ar
    39    36    26   ar
    40    35    29   ar
    41     6     1    1
    42     8     1    1
    43    17    12   ar
    44    22    15    1
    45    40    42    1
    46    40    43    1
    47     9    10    1
    48    18    23    1
@<TRIPOS>MOLECULE
*****
 43 48 0 0 0
SMALL
GASTEIGER

@<TRIPOS>ATOM
      1 C         144.3976  142.7345  163.3843 C.3     1  UNL1        0.0932
      2 C         143.9376  143.6002  164.5195 C.3     1  UNL1        0.0286
      3 C         142.8888  144.6471  164.2871 C.3     1  UNL1        0.0193
      4 C         142.3000  144.8283  162.9194 C.3     1  UNL1        0.0700
      5 C         142.7600  143.9625  161.7842 C.3     1  UNL1        0.0193
      6 C         143.8089  142.9156  162.0166 C.3     1  UNL1        0.0286
      7 C         142.8721  144.2414  162.9982 C.3     1  UNL1        0.1562
      8 O         143.8205  143.2948  163.2083 O.3     1  UNL1       -0.3572
      9 N         141.2512  145.8752  162.6870 N.3     1  UNL1       -0.2926
     10 H         141.3138  146.1416  161.7044 H       1  UNL1        0.1236
     11 C         139.8092  145.5660  162.9608 C.3     1  UNL1        0.1152
     12 C         139.2712  144.1931  162.6857 C.ar    1  UNL1        0.0765
     13 C         138.8853  143.2966  163.8247 C.ar    1  UNL1        0.0193
     14 C         138.3473  141.9237  163.5496 C.ar    1  UNL1        0.0411
     15 C         138.1951  141.4473  162.1354 C.ar    1  UNL1        0.1708
     16 C         138.5810  142.3438  160.9964 C.ar    1  UNL1        0.1682
     17 N         139.1191  143.7167  161.2715 N.ar    1  UNL1       -0.2304
     18 N         138.4289  141.8673  159.5822 N.am    1  UNL1       -0.2639
     19 C         137.8909  140.4945  159.3071 C.2     1  UNL1        0.2718
     20 O         137.7388  140.0181  157.8929 O.2     1  UNL1       -0.2707
     21 C         137.5050  139.5979  160.4461 C.3     1  UNL1        0.2898
     22 O         137.6571  140.0744  161.8603 O.3     1  UNL1       -0.4628
     23 H         138.6822  142.4557  158.8346 H       1  UNL1        0.1565
     24 C         145.4464  141.6876  163.6166 C.3     1  UNL1        0.0320
     25 C         145.0708  140.3743  164.2366 C.3     1  UNL1        0.0327
     26 C         141.9664  140.5625  167.4890 C.ar    1  UNL1        0.2249
     27 C         140.6010  139.9867  167.2567 C.ar    1  UNL1        0.0593
     28 C         140.2704  139.3481  165.9403 C.ar    1  UNL1        0.0254
     29 C         141.3051  139.2854  164.8562 C.ar    1  UNL1        0.0990
     30 N         140.9744  138.6468  163.5398 N.ar    1  UNL1       -0.2400
     31 C         142.0092  138.5841  162.4557 C.ar    1  UNL1        0.1281
     32 C         143.3747  139.1599  162.6879 C.ar    1  UNL1        0.1566
     33 F         144.4094  139.0972  161.6039 F       1  UNL1       -0.2028
     34 C         143.7054  139.7985  164.0043 C.ar    1  UNL1        0.0261
     35 C         142.6705  139.8612  165.0885 C.ar    1  UNL1        0.1002
     36 N         143.0012  140.4998  166.4049 N.ar    1  UNL1       -0.2104
     37 O         142.2971  141.2011  168.8054 O.3     1  UNL1       -0.4602
     38 C         142.1411  142.6826  168.9805 C.3     1  UNL1        0.2085
     39 C         140.9532  143.2301  169.7148 C.3     1  UNL1        0.0642
     40 N         140.5944  141.4726  171.5944 N.3     1  UNL1       -0.3210
     41 C         140.0478  142.3045  170.4722 C.3     1  UNL1        0.0690
     42 H         139.8458  140.9068  171.9941 H       1  UNL1        0.1189
     43 H         140.9800  142.0839  172.3142 H       1  UNL1        0.1189
@<TRIPOS>BOND
     1    40    41    1
     2    41    39    1
     3    39    38    1
     4    38    37    1
     5    37    26    1
     6    26    27   ar
     7    27    28   ar
     8    28    29   ar
     9    29    30   ar
    10    30    31   ar
    11    31    32   ar
    12    32    33    1
    13    32    34   ar
    14    34    25    1
    15    25    24    1
    16    24     1    1
    17     1     2    1
    18     2     3    1
    19     3     4    1
    20     4     9    1
    21     9    11    1
    22    11    12    1
    23    12    13   ar
    24    13    14   ar
    25    14    15   ar
    26    15    16   ar
    27    16    17   ar
    28    16    18    1
    29    18    19   am
    30    19    20    2
    31    19    21    1
    32    21    22    1
    33     4     5    1
    34     5     6    1
    35     4     7    1
    36     7     8    1
    37    34    35   ar
    38    35    36   ar
    39    36    26   ar
    40    35    29   ar
    41     6     1    1
    42     8     1    1
    43    17    12   ar
    44    22    15    1
    45    40    42    1
    46    40    43    1
    47     9    10    1
    48    18    23    1
@<TRIPOS>MOLECULE
*****
 43 48 0 0 0
SMALL
GASTEIGER

@<TRIPOS>ATOM
      1 C         140.3158  143.7798  164.2382 C.3     1  UNL1        0.0932
      2 C         140.9418  143.1833  165.4638 C.3     1  UNL1        0.0286
      3 C         142.3906  142.7952  165.4529 C.3     1  UNL1        0.0193
      4 C         143.2136  143.0037  164.2162 C.3     1  UNL1        0.0700
      5 C         142.5877  143.6003  162.9905 C.3     1  UNL1        0.0193
      6 C         141.1388  143.9883  163.0015 C.3     1  UNL1        0.0286
      7 C         142.4236  143.2320  164.1744 C.3     1  UNL1        0.1562
      8 O         141.1135  143.5829  164.1843 O.3     1  UNL1       -0.3572
      9 N         144.6625  142.6157  164.2053 N.3     1  UNL1       -0.2926
     10 H         145.0677  142.9658  165.0734 H       1  UNL1        0.1236
     11 C         145.0512  141.1709  164.0979 C.3     1  UNL1        0.1152
     12 C         144.4507  140.3104  163.0261 C.ar    1  UNL1        0.0765
     13 C         143.8464  138.9838  163.3801 C.ar    1  UNL1        0.0193
     14 C         143.2459  138.1233  162.3083 C.ar    1  UNL1        0.0411
     15 C         143.2495  138.5892  160.8825 C.ar    1  UNL1        0.1708
     16 C         143.8536  139.9157  160.5285 C.ar    1  UNL1        0.1682
     17 N         144.4543  140.7763  161.6003 N.ar    1  UNL1       -0.2304
     18 N         143.8573  140.3816  159.1027 N.am    1  UNL1       -0.2639
     19 C         143.2567  139.5211  158.0309 C.2     1  UNL1        0.2718
     20 O         143.2603  139.9870  156.6051 O.2     1  UNL1       -0.2707
     21 C         142.6525  138.1945  158.3849 C.3     1  UNL1        0.2898
     22 O         142.6489  137.7286  159.8107 O.3     1  UNL1       -0.4628
     23 H         144.2538  141.2523  158.8704 H       1  UNL1        0.1565
     24 C         138.8670  144.1679  164.2491 C.3     1  UNL1        0.0320
     25 C         137.8064  143.1071  164.2548 C.3     1  UNL1        0.0327
     26 C         138.6289  139.2460  166.4147 C.ar    1  UNL1        0.2249
     27 C         138.8306  137.9796  165.6366 C.ar    1  UNL1        0.0593
     28 C         138.7582  138.0002  164.1385 C.ar    1  UNL1        0.0254
     29 C         138.4840  139.2872  163.4185 C.ar    1  UNL1        0.0990
     30 N         138.4116  139.3078  161.9204 N.ar    1  UNL1       -0.2400
     31 C         138.1374  140.5948  161.2004 C.ar    1  UNL1        0.1281
     32 C         137.9357  141.8613  161.9785 C.ar    1  UNL1        0.1566
     33 F         137.6616  143.1483  161.2586 F       1  UNL1       -0.2028
     34 C         138.0081  141.8407  163.4767 C.ar    1  UNL1        0.0261
     35 C         138.2823  140.5536  164.1966 C.ar    1  UNL1        0.1002
     36 N         138.3547  140.5330  165.6947 N.ar    1  UNL1       -0.2104
     37 O         138.7013  139.2254  167.9128 O.3     1  UNL1       -0.4602
     38 C         139.6728  140.1160  168.6291 C.3     1  UNL1        0.2085
     39 C         139.2734  140.7833  169.9117 C.3     1  UNL1        0.0642
     40 N         140.4676  142.1225  171.7907 N.3     1  UNL1       -0.3210
     41 C         139.9935  142.0162  170.3716 C.3     1  UNL1        0.0690
     42 H         140.9327  143.0199  171.9275 H       1  UNL1        0.1189
     43 H         141.1232  141.3663  171.9877 H       1  UNL1        0.1189
@<TRIPOS>BOND
     1    40    41    1
     2    41    39    1
     3    39    38    1
     4    38    37    1
     5    37    26    1
     6    26    27   ar
     7    27    28   ar
     8    28    29   ar
     9    29    30   ar
    10    30    31   ar
    11    31    32   ar
    12    32    33    1
    13    32    34   ar
    14    34    25    1
    15    25    24    1
    16    24     1    1
    17     1     2    1
    18     2     3    1
    19     3     4    1
    20     4     9    1
    21     9    11    1
    22    11    12    1
    23    12    13   ar
    24    13    14   ar
    25    14    15   ar
    26    15    16   ar
    27    16    17   ar
    28    16    18    1
    29    18    19   am
    30    19    20    2
    31    19    21    1
    32    21    22    1
    33     4     5    1
    34     5     6    1
    35     4     7    1
    36     7     8    1
    37    34    35   ar
    38    35    36   ar
    39    36    26   ar
    40    35    29   ar
    41     6     1    1
    42     8     1    1
    43    17    12   ar
    44    22    15    1
    45    40    42    1
    46    40    43    1
    47     9    10    1
    48    18    23    1
