@<TRIPOS>MOLECULE
*****
 30 33 0 0 0
SMALL
GASTEIGER

@<TRIPOS>ATOM
      1 C         142.6171  142.1763  164.3762 C.ar    1  UNL1        0.0858
      2 C         143.3096  141.4371  163.2700 C.ar    1  UNL1        0.0399
      3 C         143.3391  142.0143  161.8857 C.ar    1  UNL1        0.1032
      4 N         144.0317  141.2751  160.7795 N.ar    1  UNL1       -0.2405
      5 C         144.0611  141.8523  159.3953 C.ar    1  UNL1        0.1195
      6 C         143.3980  143.1688  159.1175 C.ar    1  UNL1        0.1196
      7 N         142.7055  143.9080  160.2238 N.ar    1  UNL1       -0.2379
      8 C         142.6760  143.3308  161.6079 C.ar    1  UNL1        0.1302
      9 C         141.9834  144.0700  162.7143 C.ar    1  UNL1        0.1477
     10 N         141.9540  143.4928  164.0984 N.ar    1  UNL1       -0.2292
     11 C         142.5286  140.4445  168.5287 C.ar    1  UNL1        0.1318
     12 C         142.9659  141.8637  168.3171 C.ar    1  UNL1        0.0344
     13 C         142.9954  142.4409  166.9330 C.ar    1  UNL1        0.0059
     14 C         142.5876  141.5990  165.7605 C.ar    1  UNL1        0.0370
     15 C         142.1502  140.1799  165.9721 C.ar    1  UNL1        0.1018
     16 N         142.1207  139.6026  167.3562 N.ar    1  UNL1       -0.2291
     17 C         142.1534  140.7405  171.0825 C.3     1  UNL1        0.1136
     18 N         142.4991  139.8673  169.9129 N.pl3   1  UNL1       -0.2897
     19 C         142.8153  138.4168  170.1275 C.3     1  UNL1        0.1136
     20 N         141.3204  145.3865  162.4364 N.pl3   1  UNL1       -0.3157
     21 H         141.8674  146.1910  162.2856 H       1  UNL1        0.1483
     22 C         139.8239  145.4772  162.3883 C.3     1  UNL1        0.1057
     23 C         138.9902  144.2548  162.6347 C.3     1  UNL1        0.0931
     24 C         138.6580  143.3322  161.4997 C.3     1  UNL1        0.0865
     25 N         137.8243  142.1099  161.7461 N.3     1  UNL1       -0.2951
     26 C         137.3226  141.8101  163.1275 C.3     1  UNL1        0.0862
     27 C         137.6548  142.7328  164.2627 C.3     1  UNL1        0.0895
     28 N         138.4885  143.9551  164.0163 N.3     1  UNL1       -0.2689
     29 C         138.8207  144.8777  165.1513 C.3     1  UNL1        0.0897
     30 H         138.3841  141.3082  161.4557 H       1  UNL1        0.1233
@<TRIPOS>BOND
     1    17    18    1
     2    18    19    1
     3    18    11    1
     4    11    12   ar
     5    12    13   ar
     6    13    14   ar
     7    14     1    1
     8     1     2   ar
     9     2     3   ar
    10     3     4   ar
    11     4     5   ar
    12     5     6   ar
    13     6     7   ar
    14     7     8   ar
    15     8     9   ar
    16     9    20    1
    17    20    22    1
    18    23    22    1
    19    23    24    1
    20    24    25    1
    21    25    26    1
    22    26    27    1
    23    27    28    1
    24    28    29    1
    25     9    10   ar
    26    14    15   ar
    27    15    16   ar
    28    16    11   ar
    29    10     1   ar
    30     8     3   ar
    31    28    23    1
    32    20    21    1
    33    25    30    1
@<TRIPOS>MOLECULE
*****
 30 33 0 0 0
SMALL
GASTEIGER

@<TRIPOS>ATOM
      1 C         139.3667  141.9583  164.4906 C.ar    1  UNL1        0.0858
      2 C         139.0829  140.7992  163.5819 C.ar    1  UNL1        0.0399
      3 C         138.7608  141.0403  162.1368 C.ar    1  UNL1        0.1032
      4 N         138.4769  139.8812  161.2281 N.ar    1  UNL1       -0.2405
      5 C         138.1549  140.1223  159.7831 C.ar    1  UNL1        0.1195
      6 C         138.1167  141.5227  159.2468 C.ar    1  UNL1        0.1196
      7 N         138.4006  142.6818  160.1555 N.ar    1  UNL1       -0.2379
      8 C         138.7226  142.4406  161.6005 C.ar    1  UNL1        0.1302
      9 C         139.0065  143.5998  162.5092 C.ar    1  UNL1        0.1477
     10 N         139.3285  143.3587  163.9542 N.ar    1  UNL1       -0.2292
     11 C         140.3328  141.2349  168.8257 C.ar    1  UNL1        0.1318
     12 C         140.6376  142.5641  168.2010 C.ar    1  UNL1        0.0344
     13 C         140.3156  142.8053  166.7560 C.ar    1  UNL1        0.0059
     14 C         139.6888  141.7172  165.9356 C.ar    1  UNL1        0.0370
     15 C         139.3840  140.3879  166.5603 C.ar    1  UNL1        0.1018
     16 N         139.7060  140.1468  168.0053 N.ar    1  UNL1       -0.2291
     17 C         140.0770  139.8048  170.9797 C.3     1  UNL1        0.1136
     18 N         140.6549  140.9937  170.2707 N.pl3   1  UNL1       -0.2897
     19 C         141.5548  141.9415  171.0068 C.3     1  UNL1        0.1136
     20 N         138.9683  145.0001  161.9729 N.pl3   1  UNL1       -0.3157
     21 H         138.1036  145.4354  161.7943 H       1  UNL1        0.1483
     22 C         140.2477  145.7372  161.7088 C.3     1  UNL1        0.1057
     23 C         141.5553  145.1544  162.1566 C.3     1  UNL1        0.0931
     24 C         142.0763  145.4498  163.5318 C.3     1  UNL1        0.0865
     25 N         143.3839  144.8670  163.9796 N.3     1  UNL1       -0.2951
     26 C         144.1705  143.9888  163.0523 C.3     1  UNL1        0.0862
     27 C         143.6494  143.6933  161.6770 C.3     1  UNL1        0.0895
     28 N         142.3418  144.2761  161.2292 N.3     1  UNL1       -0.2689
     29 C         141.8208  143.9807  159.8540 C.3     1  UNL1        0.0897
     30 H         143.1894  144.3142  164.8144 H       1  UNL1        0.1233
@<TRIPOS>BOND
     1    17    18    1
     2    18    19    1
     3    18    11    1
     4    11    12   ar
     5    12    13   ar
     6    13    14   ar
     7    14     1    1
     8     1     2   ar
     9     2     3   ar
    10     3     4   ar
    11     4     5   ar
    12     5     6   ar
    13     6     7   ar
    14     7     8   ar
    15     8     9   ar
    16     9    20    1
    17    20    22    1
    18    23    22    1
    19    23    24    1
    20    24    25    1
    21    25    26    1
    22    26    27    1
    23    27    28    1
    24    28    29    1
    25     9    10   ar
    26    14    15   ar
    27    15    16   ar
    28    16    11   ar
    29    10     1   ar
    30     8     3   ar
    31    28    23    1
    32    20    21    1
    33    25    30    1
@<TRIPOS>MOLECULE
*****
 30 33 0 0 0
SMALL
GASTEIGER

@<TRIPOS>ATOM
      1 C         140.3247  139.9854  164.3290 C.ar    1  UNL1        0.0858
      2 C         139.3085  140.5416  163.3761 C.ar    1  UNL1        0.0399
      3 C         139.3034  140.0992  161.9428 C.ar    1  UNL1        0.1032
      4 N         138.2872  140.6554  160.9899 N.ar    1  UNL1       -0.2405
      5 C         138.2821  140.2131  159.5566 C.ar    1  UNL1        0.1195
      6 C         139.2931  139.2145  159.0763 C.ar    1  UNL1        0.1196
      7 N         140.3092  138.6583  160.0292 N.ar    1  UNL1       -0.2379
      8 C         140.3144  139.1007  161.4624 C.ar    1  UNL1        0.1302
      9 C         141.3305  138.5445  162.4154 C.ar    1  UNL1        0.1477
     10 N         141.3357  138.9868  163.8487 N.ar    1  UNL1       -0.2292
     11 C         140.3403  141.3126  168.6288 C.ar    1  UNL1        0.1318
     12 C         139.5585  140.0990  168.2213 C.ar    1  UNL1        0.0344
     13 C         139.5533  139.6566  166.7881 C.ar    1  UNL1        0.0059
     14 C         140.3299  140.4278  165.7623 C.ar    1  UNL1        0.0370
     15 C         141.1116  141.6414  166.1698 C.ar    1  UNL1        0.1018
     16 N         141.1168  142.0838  167.6031 N.ar    1  UNL1       -0.2291
     17 C         139.9252  143.1502  170.4179 C.3     1  UNL1        0.1136
     18 N         140.3455  141.7549  170.0621 N.pl3   1  UNL1       -0.2897
     19 C         140.7709  140.8020  171.1396 C.3     1  UNL1        0.1136
     20 N         142.3415  137.5459  161.9351 N.pl3   1  UNL1       -0.3157
     21 H         142.0896  136.5994  161.8351 H       1  UNL1        0.1483
     22 C         143.7364  137.9893  161.6071 C.3     1  UNL1        0.1057
     23 C         144.0374  139.4480  161.4291 C.3     1  UNL1        0.0931
     24 C         143.7674  140.1143  160.1126 C.3     1  UNL1        0.0865
     25 N         144.0684  141.5730  159.9346 N.3     1  UNL1       -0.2951
     26 C         144.6393  142.3653  161.0731 C.3     1  UNL1        0.0862
     27 C         144.9093  141.6990  162.3896 C.3     1  UNL1        0.0895
     28 N         144.6084  140.2404  162.5676 N.3     1  UNL1       -0.2689
     29 C         144.8783  139.5740  163.8841 C.3     1  UNL1        0.0897
     30 H         143.1923  142.0244  159.6718 H       1  UNL1        0.1233
@<TRIPOS>BOND
     1    17    18    1
     2    18    19    1
     3    18    11    1
     4    11    12   ar
     5    12    13   ar
     6    13    14   ar
     7    14     1    1
     8     1     2   ar
     9     2     3   ar
    10     3     4   ar
    11     4     5   ar
    12     5     6   ar
    13     6     7   ar
    14     7     8   ar
    15     8     9   ar
    16     9    20    1
    17    20    22    1
    18    23    22    1
    19    23    24    1
    20    24    25    1
    21    25    26    1
    22    26    27    1
    23    27    28    1
    24    28    29    1
    25     9    10   ar
    26    14    15   ar
    27    15    16   ar
    28    16    11   ar
    29    10     1   ar
    30     8     3   ar
    31    28    23    1
    32    20    21    1
    33    25    30    1
@<TRIPOS>MOLECULE
*****
 30 33 0 0 0
SMALL
GASTEIGER

@<TRIPOS>ATOM
      1 C         141.1277  139.5461  164.9081 C.ar    1  UNL1        0.0858
      2 C         142.4184  139.6141  164.1469 C.ar    1  UNL1        0.0399
      3 C         142.5146  139.0084  162.7779 C.ar    1  UNL1        0.1032
      4 N         143.8053  139.0764  162.0167 N.ar    1  UNL1       -0.2405
      5 C         143.9014  138.4707  160.6478 C.ar    1  UNL1        0.1195
      6 C         142.7069  137.7971  160.0402 C.ar    1  UNL1        0.1196
      7 N         141.4162  137.7290  160.8014 N.ar    1  UNL1       -0.2379
      8 C         141.3201  138.3347  162.1702 C.ar    1  UNL1        0.1302
      9 C         140.0293  138.2667  162.9315 C.ar    1  UNL1        0.1477
     10 N         139.9332  138.8724  164.3004 N.ar    1  UNL1       -0.2292
     11 C         140.8392  141.3632  169.0147 C.ar    1  UNL1        0.1318
     12 C         139.7281  140.4982  168.4976 C.ar    1  UNL1        0.0344
     13 C         139.8243  139.8925  167.1287 C.ar    1  UNL1        0.0059
     14 C         141.0315  140.1518  166.2770 C.ar    1  UNL1        0.0370
     15 C         142.1425  141.0168  166.7942 C.ar    1  UNL1        0.1018
     16 N         142.0463  141.6224  168.1630 N.ar    1  UNL1       -0.2291
     17 C         141.7540  141.6144  171.4334 C.3     1  UNL1        0.1136
     18 N         140.7429  141.9689  170.3837 N.pl3   1  UNL1       -0.2897
     19 C         139.6356  142.9290  170.7028 C.3     1  UNL1        0.1136
     20 N         138.8348  137.5930  162.3238 N.pl3   1  UNL1       -0.3157
     21 H         138.7743  136.6104  162.3170 H       1  UNL1        0.1483
     22 C         137.7325  138.4164  161.7265 C.3     1  UNL1        0.1057
     23 C         137.8678  139.9084  161.6501 C.3     1  UNL1        0.0931
     24 C         137.3834  140.7644  162.7825 C.3     1  UNL1        0.0865
     25 N         137.5187  142.2563  162.7060 N.3     1  UNL1       -0.2951
     26 C         138.1383  142.8922  161.4971 C.3     1  UNL1        0.0862
     27 C         138.6228  142.0362  160.3646 C.3     1  UNL1        0.0895
     28 N         138.4875  140.5442  160.4410 N.3     1  UNL1       -0.2689
     29 C         138.9719  139.6882  159.3086 C.3     1  UNL1        0.0897
     30 H         138.0786  142.5427  163.5091 H       1  UNL1        0.1233
@<TRIPOS>BOND
     1    17    18    1
     2    18    19    1
     3    18    11    1
     4    11    12   ar
     5    12    13   ar
     6    13    14   ar
     7    14     1    1
     8     1     2   ar
     9     2     3   ar
    10     3     4   ar
    11     4     5   ar
    12     5     6   ar
    13     6     7   ar
    14     7     8   ar
    15     8     9   ar
    16     9    20    1
    17    20    22    1
    18    23    22    1
    19    23    24    1
    20    24    25    1
    21    25    26    1
    22    26    27    1
    23    27    28    1
    24    28    29    1
    25     9    10   ar
    26    14    15   ar
    27    15    16   ar
    28    16    11   ar
    29    10     1   ar
    30     8     3   ar
    31    28    23    1
    32    20    21    1
    33    25    30    1
@<TRIPOS>MOLECULE
*****
 30 33 0 0 0
SMALL
GASTEIGER

@<TRIPOS>ATOM
      1 C         139.5409  141.9389  164.4313 C.ar    1  UNL1        0.0858
      2 C         140.2327  143.0306  163.6700 C.ar    1  UNL1        0.0399
      3 C         139.9578  143.2150  162.2069 C.ar    1  UNL1        0.1032
      4 N         140.6496  144.3067  161.4456 N.ar    1  UNL1       -0.2405
      5 C         140.3747  144.4911  159.9826 C.ar    1  UNL1        0.1195
      6 C         139.4081  143.5837  159.2809 C.ar    1  UNL1        0.1196
      7 N         138.7163  142.4920  160.0422 N.ar    1  UNL1       -0.2379
      8 C         138.9912  142.3077  161.5052 C.ar    1  UNL1        0.1302
      9 C         138.2994  141.2159  162.2666 C.ar    1  UNL1        0.1477
     10 N         138.5742  141.0316  163.7296 N.ar    1  UNL1       -0.2292
     11 C         140.3654  141.3856  168.8204 C.ar    1  UNL1        0.1318
     12 C         140.6733  142.6961  168.1588 C.ar    1  UNL1        0.0344
     13 C         140.3985  142.8805  166.6958 C.ar    1  UNL1        0.0059
     14 C         139.8157  141.7545  165.8944 C.ar    1  UNL1        0.0370
     15 C         139.5078  140.4440  166.5560 C.ar    1  UNL1        0.1018
     16 N         139.7826  140.2595  168.0190 N.ar    1  UNL1       -0.2291
     17 C         141.4698  142.2081  171.0235 C.3     1  UNL1        0.1136
     18 N         140.6402  141.2012  170.2835 N.pl3   1  UNL1       -0.2897
     19 C         140.0854  140.0098  171.0064 C.3     1  UNL1        0.1136
     20 N         137.3327  140.3086  161.5649 N.pl3   1  UNL1       -0.3157
     21 H         136.4252  140.6258  161.3526 H       1  UNL1        0.1483
     22 C         137.7488  138.9180  161.1866 C.3     1  UNL1        0.1057
     23 C         139.2023  138.5480  161.1715 C.3     1  UNL1        0.0931
     24 C         140.0330  138.8206  159.9526 C.3     1  UNL1        0.0865
     25 N         141.4865  138.4506  159.9374 N.3     1  UNL1       -0.2951
     26 C         142.1095  137.8080  161.1411 C.3     1  UNL1        0.0862
     27 C         141.2788  137.5353  162.3601 C.3     1  UNL1        0.0895
     28 N         139.8252  137.9053  162.3753 N.3     1  UNL1       -0.2689
     29 C         138.9946  137.6327  163.5941 C.3     1  UNL1        0.0897
     30 H         142.0072  139.3095  159.7596 H       1  UNL1        0.1233
@<TRIPOS>BOND
     1    17    18    1
     2    18    19    1
     3    18    11    1
     4    11    12   ar
     5    12    13   ar
     6    13    14   ar
     7    14     1    1
     8     1     2   ar
     9     2     3   ar
    10     3     4   ar
    11     4     5   ar
    12     5     6   ar
    13     6     7   ar
    14     7     8   ar
    15     8     9   ar
    16     9    20    1
    17    20    22    1
    18    23    22    1
    19    23    24    1
    20    24    25    1
    21    25    26    1
    22    26    27    1
    23    27    28    1
    24    28    29    1
    25     9    10   ar
    26    14    15   ar
    27    15    16   ar
    28    16    11   ar
    29    10     1   ar
    30     8     3   ar
    31    28    23    1
    32    20    21    1
    33    25    30    1
@<TRIPOS>MOLECULE
*****
 30 33 0 0 0
SMALL
GASTEIGER

@<TRIPOS>ATOM
      1 C         140.7597  142.9530  164.0848 C.ar    1  UNL1        0.0858
      2 C         141.5312  143.8104  163.1259 C.ar    1  UNL1        0.0399
      3 C         141.0372  143.9968  161.7218 C.ar    1  UNL1        0.1032
      4 N         141.8087  144.8543  160.7629 N.ar    1  UNL1       -0.2405
      5 C         141.3147  145.0406  159.3590 C.ar    1  UNL1        0.1195
      6 C         140.0492  144.3694  158.9138 C.ar    1  UNL1        0.1196
      7 N         139.2778  143.5120  159.8727 N.ar    1  UNL1       -0.2379
      8 C         139.7717  143.3256  161.2767 C.ar    1  UNL1        0.1302
      9 C         139.0002  142.4681  162.2357 C.ar    1  UNL1        0.1477
     10 N         139.4942  142.2818  163.6397 N.ar    1  UNL1       -0.2292
     11 C         142.2415  142.3939  168.2968 C.ar    1  UNL1        0.1318
     12 C         143.2005  142.3076  167.1467 C.ar    1  UNL1        0.0344
     13 C         142.7066  142.4939  165.7427 C.ar    1  UNL1        0.0059
     14 C         141.2537  142.7666  165.4888 C.ar    1  UNL1        0.0370
     15 C         140.2946  142.8530  166.6389 C.ar    1  UNL1        0.1018
     16 N         140.7885  142.6666  168.0430 N.ar    1  UNL1       -0.2291
     17 C         141.7877  141.7683  170.7773 C.3     1  UNL1        0.1136
     18 N         142.7355  142.2076  169.7009 N.pl3   1  UNL1       -0.2897
     19 C         144.1772  142.4605  170.0285 C.3     1  UNL1        0.1136
     20 N         137.7348  141.7970  161.7906 N.pl3   1  UNL1       -0.3157
     21 H         136.8738  142.2680  161.8692 H       1  UNL1        0.1483
     22 C         137.7810  140.4082  161.2257 C.3     1  UNL1        0.1057
     23 C         138.7714  139.4149  161.7571 C.3     1  UNL1        0.0931
     24 C         138.4733  138.6602  163.0186 C.3     1  UNL1        0.0865
     25 N         139.4637  137.6669  163.5501 N.3     1  UNL1       -0.2951
     26 C         140.7522  137.4283  162.8201 C.3     1  UNL1        0.0862
     27 C         141.0503  138.1831  161.5585 C.3     1  UNL1        0.0895
     28 N         140.0599  139.1764  161.0271 N.3     1  UNL1       -0.2689
     29 C         140.3579  139.9312  159.7655 C.3     1  UNL1        0.0897
     30 H         138.9826  136.7688  163.5994 H       1  UNL1        0.1233
@<TRIPOS>BOND
     1    17    18    1
     2    18    19    1
     3    18    11    1
     4    11    12   ar
     5    12    13   ar
     6    13    14   ar
     7    14     1    1
     8     1     2   ar
     9     2     3   ar
    10     3     4   ar
    11     4     5   ar
    12     5     6   ar
    13     6     7   ar
    14     7     8   ar
    15     8     9   ar
    16     9    20    1
    17    20    22    1
    18    23    22    1
    19    23    24    1
    20    24    25    1
    21    25    26    1
    22    26    27    1
    23    27    28    1
    24    28    29    1
    25     9    10   ar
    26    14    15   ar
    27    15    16   ar
    28    16    11   ar
    29    10     1   ar
    30     8     3   ar
    31    28    23    1
    32    20    21    1
    33    25    30    1
@<TRIPOS>MOLECULE
*****
 30 33 0 0 0
SMALL
GASTEIGER

@<TRIPOS>ATOM
      1 C         140.1746  139.8965  159.1976 C.ar    1  UNL1        0.0858
      2 C         139.5381  139.5552  160.5122 C.ar    1  UNL1        0.0399
      3 C         138.8598  140.6240  161.3170 C.ar    1  UNL1        0.1032
      4 N         138.2232  140.2827  162.6317 N.ar    1  UNL1       -0.2405
      5 C         137.5450  141.3515  163.4364 C.ar    1  UNL1        0.1195
      6 C         137.5034  142.7615  162.9266 C.ar    1  UNL1        0.1196
      7 N         138.1399  143.1029  161.6120 N.ar    1  UNL1       -0.2379
      8 C         138.8181  142.0341  160.8072 C.ar    1  UNL1        0.1302
      9 C         139.4548  142.3754  159.4925 C.ar    1  UNL1        0.1477
     10 N         140.1330  141.3066  158.6878 N.ar    1  UNL1       -0.2292
     11 C         142.2094  136.6903  156.7832 C.ar    1  UNL1        0.1318
     12 C         140.7963  137.0829  156.4687 C.ar    1  UNL1        0.0344
     13 C         140.1180  138.1516  157.2735 C.ar    1  UNL1        0.0059
     14 C         140.8529  138.8277  158.3927 C.ar    1  UNL1        0.0370
     15 C         142.2660  138.4351  158.7072 C.ar    1  UNL1        0.1018
     16 N         142.9443  137.3664  157.9024 N.ar    1  UNL1       -0.2291
     17 C         143.7390  134.5936  156.6629 C.3     1  UNL1        0.1136
     18 N         142.8877  135.6215  155.9783 N.pl3   1  UNL1       -0.2897
     19 C         142.7146  135.5806  154.4889 C.3     1  UNL1        0.1136
     20 N         139.4131  143.7855  158.9827 N.pl3   1  UNL1       -0.3157
     21 H         138.6225  144.1088  158.4933 H       1  UNL1        0.1483
     22 C         140.5761  144.7029  159.2186 C.3     1  UNL1        0.1057
     23 C         141.1102  144.8951  160.6070 C.3     1  UNL1        0.0931
     24 C         140.3941  145.7973  161.5678 C.3     1  UNL1        0.0865
     25 N         140.9282  145.9896  162.9563 N.3     1  UNL1       -0.2951
     26 C         142.1784  145.2796  163.3839 C.3     1  UNL1        0.0862
     27 C         142.8945  144.3774  162.4231 C.3     1  UNL1        0.0895
     28 N         142.3605  144.1851  161.0347 N.3     1  UNL1       -0.2689
     29 C         143.0766  143.2829  160.0739 C.3     1  UNL1        0.0897
     30 H         140.1905  145.6995  163.5983 H       1  UNL1        0.1233
@<TRIPOS>BOND
     1    17    18    1
     2    18    19    1
     3    18    11    1
     4    11    12   ar
     5    12    13   ar
     6    13    14   ar
     7    14     1    1
     8     1     2   ar
     9     2     3   ar
    10     3     4   ar
    11     4     5   ar
    12     5     6   ar
    13     6     7   ar
    14     7     8   ar
    15     8     9   ar
    16     9    20    1
    17    20    22    1
    18    23    22    1
    19    23    24    1
    20    24    25    1
    21    25    26    1
    22    26    27    1
    23    27    28    1
    24    28    29    1
    25     9    10   ar
    26    14    15   ar
    27    15    16   ar
    28    16    11   ar
    29    10     1   ar
    30     8     3   ar
    31    28    23    1
    32    20    21    1
    33    25    30    1
@<TRIPOS>MOLECULE
*****
 30 33 0 0 0
SMALL
GASTEIGER

@<TRIPOS>ATOM
      1 C         142.4390  141.7798  164.6056 C.ar    1  UNL1        0.0858
      2 C         143.2399  142.3895  165.7177 C.ar    1  UNL1        0.0399
      3 C         142.9111  142.0642  167.1446 C.ar    1  UNL1        0.1032
      4 N         143.7120  142.6739  168.2566 N.ar    1  UNL1       -0.2405
      5 C         143.3831  142.3486  169.6835 C.ar    1  UNL1        0.1195
      6 C         142.2533  141.4136  169.9983 C.ar    1  UNL1        0.1196
      7 N         141.4523  140.8039  168.8863 N.ar    1  UNL1       -0.2379
      8 C         141.7812  141.1292  167.4594 C.ar    1  UNL1        0.1302
      9 C         140.9802  140.5195  166.3473 C.ar    1  UNL1        0.1477
     10 N         141.3091  140.8448  164.9204 N.ar    1  UNL1       -0.2292
     11 C         143.4255  142.7557  160.3249 C.ar    1  UNL1        0.1318
     12 C         144.4575  142.9514  161.3958 C.ar    1  UNL1        0.0344
     13 C         144.1287  142.6261  162.8227 C.ar    1  UNL1        0.0059
     14 C         142.7679  142.1052  163.1787 C.ar    1  UNL1        0.0370
     15 C         141.7359  141.9095  162.1078 C.ar    1  UNL1        0.1018
     16 N         142.0647  142.2348  160.6809 N.ar    1  UNL1       -0.2291
     17 C         142.8329  143.9510  158.0955 C.3     1  UNL1        0.1136
     18 N         143.7544  143.0810  158.8980 N.pl3   1  UNL1       -0.2897
     19 C         145.0048  142.5364  158.2736 C.3     1  UNL1        0.1136
     20 N         139.8503  139.5844  166.6621 N.pl3   1  UNL1       -0.3157
     21 H         139.9647  138.8876  167.3481 H       1  UNL1        0.1483
     22 C         138.5463  139.7112  165.9318 C.3     1  UNL1        0.1057
     23 C         138.4431  139.2759  164.5000 C.3     1  UNL1        0.0931
     24 C         138.7793  137.8646  164.1191 C.3     1  UNL1        0.0865
     25 N         138.6761  137.4294  162.6873 N.3     1  UNL1       -0.2951
     26 C         138.2368  138.4054  161.6365 C.3     1  UNL1        0.0862
     27 C         137.9006  139.8168  162.0175 C.3     1  UNL1        0.0895
     28 N         138.0038  140.2521  163.4492 N.3     1  UNL1       -0.2689
     29 C         137.6676  141.6634  163.8302 C.3     1  UNL1        0.0897
     30 H         138.0154  136.6527  162.6626 H       1  UNL1        0.1233
@<TRIPOS>BOND
     1    17    18    1
     2    18    19    1
     3    18    11    1
     4    11    12   ar
     5    12    13   ar
     6    13    14   ar
     7    14     1    1
     8     1     2   ar
     9     2     3   ar
    10     3     4   ar
    11     4     5   ar
    12     5     6   ar
    13     6     7   ar
    14     7     8   ar
    15     8     9   ar
    16     9    20    1
    17    20    22    1
    18    23    22    1
    19    23    24    1
    20    24    25    1
    21    25    26    1
    22    26    27    1
    23    27    28    1
    24    28    29    1
    25     9    10   ar
    26    14    15   ar
    27    15    16   ar
    28    16    11   ar
    29    10     1   ar
    30     8     3   ar
    31    28    23    1
    32    20    21    1
    33    25    30    1
@<TRIPOS>MOLECULE
*****
 30 33 0 0 0
SMALL
GASTEIGER

@<TRIPOS>ATOM
      1 C         141.3764  142.7744  164.5836 C.ar    1  UNL1        0.0858
      2 C         140.7420  144.0898  164.2414 C.ar    1  UNL1        0.0399
      3 C         140.6006  144.5036  162.8065 C.ar    1  UNL1        0.1032
      4 N         139.9661  145.8190  162.4643 N.ar    1  UNL1       -0.2405
      5 C         139.8248  146.2327  161.0295 C.ar    1  UNL1        0.1195
      6 C         140.3178  145.3310  159.9368 C.ar    1  UNL1        0.1196
      7 N         140.9523  144.0156  160.2790 N.ar    1  UNL1       -0.2379
      8 C         141.0937  143.6019  161.7139 C.ar    1  UNL1        0.1302
      9 C         141.7281  142.2865  162.0561 C.ar    1  UNL1        0.1477
     10 N         141.8695  141.8727  163.4910 N.ar    1  UNL1       -0.2292
     11 C         141.8007  141.5331  168.8881 C.ar    1  UNL1        0.1318
     12 C         140.4787  142.0226  168.3755 C.ar    1  UNL1        0.0344
     13 C         140.3373  142.4363  166.9407 C.ar    1  UNL1        0.0059
     14 C         141.5178  142.3606  166.0185 C.ar    1  UNL1        0.0370
     15 C         142.8398  141.8711  166.5311 C.ar    1  UNL1        0.1018
     16 N         142.9812  141.4573  167.9659 N.ar    1  UNL1       -0.2291
     17 C         142.9412  140.0679  170.7054 C.3     1  UNL1        0.1136
     18 N         141.9421  141.1193  170.3230 N.pl3   1  UNL1       -0.2897
     19 C         141.0843  141.7569  171.3755 C.3     1  UNL1        0.1136
     20 N         142.2212  141.3848  160.9635 N.pl3   1  UNL1       -0.3157
     21 H         143.1530  141.4520  160.6528 H       1  UNL1        0.1483
     22 C         141.2947  140.3808  160.3443 C.3     1  UNL1        0.1057
     23 C         140.4809  139.4725  161.2177 C.3     1  UNL1        0.0931
     24 C         141.1012  138.2363  161.7982 C.3     1  UNL1        0.0865
     25 N         140.2875  137.3281  162.6717 N.3     1  UNL1       -0.2951
     26 C         138.8534  137.6561  162.9646 C.3     1  UNL1        0.0862
     27 C         138.2330  138.8923  162.3841 C.3     1  UNL1        0.0895
     28 N         139.0468  139.8005  161.5107 N.3     1  UNL1       -0.2689
     29 C         138.4265  141.0367  160.9302 C.3     1  UNL1        0.0897
     30 H         140.7672  137.2763  163.5703 H       1  UNL1        0.1233
@<TRIPOS>BOND
     1    17    18    1
     2    18    19    1
     3    18    11    1
     4    11    12   ar
     5    12    13   ar
     6    13    14   ar
     7    14     1    1
     8     1     2   ar
     9     2     3   ar
    10     3     4   ar
    11     4     5   ar
    12     5     6   ar
    13     6     7   ar
    14     7     8   ar
    15     8     9   ar
    16     9    20    1
    17    20    22    1
    18    23    22    1
    19    23    24    1
    20    24    25    1
    21    25    26    1
    22    26    27    1
    23    27    28    1
    24    28    29    1
    25     9    10   ar
    26    14    15   ar
    27    15    16   ar
    28    16    11   ar
    29    10     1   ar
    30     8     3   ar
    31    28    23    1
    32    20    21    1
    33    25    30    1
