@<TRIPOS>MOLECULE
*****
 38 42 0 0 0
SMALL
GASTEIGER

@<TRIPOS>ATOM
      1 C         137.9320  140.8786  163.2480 C.ar    1  UNL1        0.1533
      2 C         138.5919  141.2802  164.5339 C.ar    1  UNL1        0.0527
      3 C         139.3127  140.2557  165.3590 C.ar    1  UNL1        0.0511
      4 C         139.3736  138.8295  164.8983 C.ar    1  UNL1        0.0160
      5 C         138.7137  138.4278  163.6126 C.ar    1  UNL1        0.0190
      6 C         137.9929  139.4524  162.7874 C.ar    1  UNL1        0.0850
      7 N         139.9725  140.6574  166.6448 N.pl3   1  UNL1       -0.3040
      8 C         141.0661  141.6841  166.6376 C.3     1  UNL1        0.1123
      9 C         141.7260  142.0859  167.9235 C.3     1  UNL1        0.1149
     10 N         141.2923  141.4610  169.2162 N.am    1  UNL1       -0.2741
     11 C         141.9521  141.8627  170.5020 C.2     1  UNL1        0.2526
     12 O         141.5184  141.2378  171.7949 O.2     1  UNL1       -0.2723
     13 C         140.1987  140.4343  169.2233 C.3     1  UNL1        0.1149
     14 C         139.5388  140.0325  167.9376 C.3     1  UNL1        0.1123
     15 C         143.0457  142.8894  170.4949 C.3     1  UNL1        0.1869
     16 C         144.4247  142.5132  170.0401 C.3     1  UNL1        0.0417
     17 O         142.7603  144.2923  170.9426 O.3     1  UNL1       -0.3758
     18 H         143.5692  144.8236  170.8765 H       1  UNL1        0.2110
     19 C         137.9864  142.9656  161.7017 C.3     1  UNL1        0.2525
     20 O         137.2113  141.9031  162.4229 O.3     1  UNL1       -0.4701
     21 N         137.3331  139.0506  161.5016 N.pl3   1  UNL1       -0.2802
     22 H         136.4509  138.6140  161.5166 H       1  UNL1        0.1552
     23 C         138.0174  139.3142  160.1931 C.ar    1  UNL1        0.2208
     24 N         139.3092  138.6237  159.8698 N.ar    1  UNL1       -0.2111
     25 C         139.9934  138.8872  158.5613 C.ar    1  UNL1        0.1147
     26 C         139.3859  139.8413  157.5760 C.ar    1  UNL1        0.0960
     27 CL        140.0702  140.1048  156.2675 Cl      1  UNL1       -0.0790
     28 C         138.0941  140.5318  157.8993 C.ar    1  UNL1        0.1138
     29 N         137.4099  140.2682  159.2078 N.ar    1  UNL1       -0.2111
     30 C         137.4866  141.4858  156.9140 C.ar    1  UNL1        0.1031
     31 C         136.2309  141.2584  156.1257 C.ar    1  UNL1        0.1196
     32 N         135.9964  142.4668  155.2686 N.ar    1  UNL1       -0.2248
     33 C         137.1072  143.4411  155.5271 C.ar    1  UNL1        0.1479
     34 C         137.3990  144.8020  154.9679 C.ar    1  UNL1        0.0374
     35 C         138.6119  145.5566  155.4257 C.ar    1  UNL1        0.0046
     36 C         139.5329  144.9504  156.4426 C.ar    1  UNL1        0.0191
     37 C         139.2410  143.5895  157.0018 C.ar    1  UNL1        0.0815
     38 N         138.0282  142.8348  156.5441 N.ar    1  UNL1       -0.2874
@<TRIPOS>BOND
     1    19    20    1
     2    20     1    1
     3     1     2   ar
     4     2     3   ar
     5     3     7    1
     6     7     8    1
     7     8     9    1
     8     9    10    1
     9    10    11   am
    10    11    12    2
    11    11    15    1
    12    15    16    1
    13    15    17    1
    14    10    13    1
    15    13    14    1
    16     3     4   ar
    17     4     5   ar
    18     5     6   ar
    19     6    21    1
    20    21    23    1
    21    23    24   ar
    22    24    25   ar
    23    25    26   ar
    24    26    27    1
    25    26    28   ar
    26    28    30    1
    27    30    31   ar
    28    31    32   ar
    29    32    33   ar
    30    33    34   ar
    31    34    35   ar
    32    35    36   ar
    33    36    37   ar
    34    37    38   ar
    35    28    29   ar
    36     6     1   ar
    37    29    23   ar
    38    14     7    1
    39    38    30   ar
    40    38    33   ar
    41    17    18    1
    42    21    22    1
@<TRIPOS>MOLECULE
*****
 38 42 0 0 0
SMALL
GASTEIGER

@<TRIPOS>ATOM
      1 C         142.0370  138.1729  162.7665 C.ar    1  UNL1        0.1533
      2 C         141.3778  138.6892  164.0111 C.ar    1  UNL1        0.0527
      3 C         142.1770  139.4633  165.0172 C.ar    1  UNL1        0.0511
      4 C         143.6353  139.7210  164.7787 C.ar    1  UNL1        0.0160
      5 C         144.2944  139.2047  163.5342 C.ar    1  UNL1        0.0190
      6 C         143.4953  138.4306  162.5280 C.ar    1  UNL1        0.0850
      7 N         141.5178  139.9796  166.2617 N.pl3   1  UNL1       -0.3040
      8 C         142.1687  141.0720  167.0572 C.3     1  UNL1        0.1123
      9 C         141.5095  141.5884  168.3018 C.3     1  UNL1        0.1149
     10 N         140.1995  141.0123  168.7507 N.am    1  UNL1       -0.2741
     11 C         139.5402  141.5286  169.9953 C.2     1  UNL1        0.2526
     12 O         138.2301  140.9524  170.4444 O.2     1  UNL1       -0.2723
     13 C         139.5485  139.9198  167.9553 C.3     1  UNL1        0.1149
     14 C         140.2077  139.4034  166.7107 C.3     1  UNL1        0.1123
     15 C         140.1912  142.6210  170.7908 C.3     1  UNL1        0.1869
     16 C         140.2766  144.0091  170.2288 C.3     1  UNL1        0.0417
     17 O         140.7567  142.3254  172.1483 O.3     1  UNL1       -0.3758
     18 H         141.1378  143.1349  172.5231 H       1  UNL1        0.2110
     19 C         140.0301  138.0199  161.1236 C.3     1  UNL1        0.2525
     20 O         141.2379  137.3988  161.7604 O.3     1  UNL1       -0.4701
     21 N         144.1546  137.9143  161.2835 N.pl3   1  UNL1       -0.2802
     22 H         144.8680  137.2391  161.3483 H       1  UNL1        0.1552
     23 C         143.7268  138.4268  159.9403 C.ar    1  UNL1        0.2208
     24 N         144.0351  139.8402  159.5439 N.ar    1  UNL1       -0.2111
     25 C         143.6073  140.3528  158.2006 C.ar    1  UNL1        0.1147
     26 C         142.8712  139.4518  157.2538 C.ar    1  UNL1        0.0960
     27 CL        142.4434  139.9644  155.9105 Cl      1  UNL1       -0.0790
     28 C         142.5628  138.0383  157.6502 C.ar    1  UNL1        0.1138
     29 N         142.9906  137.5259  158.9934 N.ar    1  UNL1       -0.2111
     30 C         141.8267  137.1374  156.7034 C.ar    1  UNL1        0.1031
     31 C         140.4811  137.4058  156.0974 C.ar    1  UNL1        0.1196
     32 N         140.1298  136.2442  155.2158 N.ar    1  UNL1       -0.2248
     33 C         141.2582  135.2579  155.2770 C.ar    1  UNL1        0.1479
     34 C         141.4663  133.9285  154.6142 C.ar    1  UNL1        0.0374
     35 C         142.7232  133.1511  154.8709 C.ar    1  UNL1        0.0046
     36 C         143.7720  133.7031  155.7903 C.ar    1  UNL1        0.0191
     37 C         143.5639  135.0326  156.4530 C.ar    1  UNL1        0.0815
     38 N         142.3070  135.8100  156.1963 N.ar    1  UNL1       -0.2874
@<TRIPOS>BOND
     1    19    20    1
     2    20     1    1
     3     1     2   ar
     4     2     3   ar
     5     3     7    1
     6     7     8    1
     7     8     9    1
     8     9    10    1
     9    10    11   am
    10    11    12    2
    11    11    15    1
    12    15    16    1
    13    15    17    1
    14    10    13    1
    15    13    14    1
    16     3     4   ar
    17     4     5   ar
    18     5     6   ar
    19     6    21    1
    20    21    23    1
    21    23    24   ar
    22    24    25   ar
    23    25    26   ar
    24    26    27    1
    25    26    28   ar
    26    28    30    1
    27    30    31   ar
    28    31    32   ar
    29    32    33   ar
    30    33    34   ar
    31    34    35   ar
    32    35    36   ar
    33    36    37   ar
    34    37    38   ar
    35    28    29   ar
    36     6     1   ar
    37    29    23   ar
    38    14     7    1
    39    38    30   ar
    40    38    33   ar
    41    17    18    1
    42    21    22    1
@<TRIPOS>MOLECULE
*****
 38 42 0 0 0
SMALL
GASTEIGER

@<TRIPOS>ATOM
      1 C         137.8993  140.4223  163.1019 C.ar    1  UNL1        0.1533
      2 C         138.4974  140.6719  164.4548 C.ar    1  UNL1        0.0527
      3 C         139.2289  139.5723  165.1658 C.ar    1  UNL1        0.0511
      4 C         139.3623  138.2230  164.5242 C.ar    1  UNL1        0.0160
      5 C         138.7642  137.9735  163.1714 C.ar    1  UNL1        0.0190
      6 C         138.0327  139.0731  162.4602 C.ar    1  UNL1        0.0850
      7 N         139.8270  139.8219  166.5186 N.pl3   1  UNL1       -0.3040
      8 C         141.3149  139.9343  166.6715 C.3     1  UNL1        0.1123
      9 C         141.9131  140.1840  168.0243 C.3     1  UNL1        0.1149
     10 N         141.0233  140.3212  169.2240 N.am    1  UNL1       -0.2741
     11 C         141.6214  140.5708  170.5768 C.2     1  UNL1        0.2526
     12 O         140.7317  140.7081  171.7766 O.2     1  UNL1       -0.2723
     13 C         139.5354  140.2088  169.0710 C.3     1  UNL1        0.1149
     14 C         138.9372  139.9591  167.7183 C.3     1  UNL1        0.1123
     15 C         143.1094  140.6833  170.7298 C.3     1  UNL1        0.1869
     16 C         143.8266  141.8966  170.2164 C.3     1  UNL1        0.0417
     17 O         143.8802  139.5824  171.3961 O.3     1  UNL1       -0.3758
     18 H         144.8225  139.8118  171.4128 H       1  UNL1        0.2110
     19 C         137.8475  142.8356  162.1409 C.3     1  UNL1        0.2525
     20 O         137.1677  141.5220  162.3909 O.3     1  UNL1       -0.4701
     21 N         137.4346  138.8235  161.1075 N.pl3   1  UNL1       -0.2802
     22 H         136.5711  138.3571  161.0296 H       1  UNL1        0.1552
     23 C         138.1521  139.2843  159.8735 C.ar    1  UNL1        0.2208
     24 N         139.5598  138.8365  159.6132 N.ar    1  UNL1       -0.2111
     25 C         140.2774  139.2973  158.3792 C.ar    1  UNL1        0.1147
     26 C         139.5872  140.2060  157.4055 C.ar    1  UNL1        0.0960
     27 CL        140.3047  140.6669  156.1716 Cl      1  UNL1       -0.0790
     28 C         138.1794  140.6539  157.6659 C.ar    1  UNL1        0.1138
     29 N         137.4620  140.1930  158.8999 N.ar    1  UNL1       -0.2111
     30 C         137.4892  141.5626  156.6923 C.ar    1  UNL1        0.1031
     31 C         137.3747  143.0538  156.8069 C.ar    1  UNL1        0.1196
     32 N         136.6071  143.5523  155.6185 N.ar    1  UNL1       -0.2248
     33 C         136.2473  142.3693  154.7695 C.ar    1  UNL1        0.1479
     34 C         135.4937  142.2529  153.4778 C.ar    1  UNL1        0.0374
     35 C         135.2852  140.9068  152.8498 C.ar    1  UNL1        0.0046
     36 C         135.8304  139.6771  153.5134 C.ar    1  UNL1        0.0191
     37 C         136.5841  139.7934  154.8051 C.ar    1  UNL1        0.0815
     38 N         136.7925  141.1395  155.4331 N.ar    1  UNL1       -0.2874
@<TRIPOS>BOND
     1    19    20    1
     2    20     1    1
     3     1     2   ar
     4     2     3   ar
     5     3     7    1
     6     7     8    1
     7     8     9    1
     8     9    10    1
     9    10    11   am
    10    11    12    2
    11    11    15    1
    12    15    16    1
    13    15    17    1
    14    10    13    1
    15    13    14    1
    16     3     4   ar
    17     4     5   ar
    18     5     6   ar
    19     6    21    1
    20    21    23    1
    21    23    24   ar
    22    24    25   ar
    23    25    26   ar
    24    26    27    1
    25    26    28   ar
    26    28    30    1
    27    30    31   ar
    28    31    32   ar
    29    32    33   ar
    30    33    34   ar
    31    34    35   ar
    32    35    36   ar
    33    36    37   ar
    34    37    38   ar
    35    28    29   ar
    36     6     1   ar
    37    29    23   ar
    38    14     7    1
    39    38    30   ar
    40    38    33   ar
    41    17    18    1
    42    21    22    1
@<TRIPOS>MOLECULE
*****
 38 42 0 0 0
SMALL
GASTEIGER

@<TRIPOS>ATOM
      1 C         142.1894  144.4043  162.5678 C.ar    1  UNL1        0.1533
      2 C         142.3672  143.6794  163.8690 C.ar    1  UNL1        0.0527
      3 C         141.2568  143.6650  164.8773 C.ar    1  UNL1        0.0511
      4 C         139.9686  144.3755  164.5846 C.ar    1  UNL1        0.0160
      5 C         139.7908  145.1003  163.2834 C.ar    1  UNL1        0.0190
      6 C         140.9012  145.1148  162.2750 C.ar    1  UNL1        0.0850
      7 N         141.4347  142.9402  166.1784 N.pl3   1  UNL1       -0.3040
      8 C         140.3278  142.9338  167.1908 C.3     1  UNL1        0.1123
      9 C         140.5057  142.2089  168.4920 C.3     1  UNL1        0.1149
     10 N         141.7903  141.4905  168.7807 N.am    1  UNL1       -0.2741
     11 C         141.9682  140.7656  170.0819 C.2     1  UNL1        0.2526
     12 O         143.2528  140.0471  170.3707 O.2     1  UNL1       -0.2723
     13 C         142.8972  141.4968  167.7684 C.3     1  UNL1        0.1149
     14 C         142.7194  142.2217  166.4672 C.3     1  UNL1        0.1123
     15 C         140.8613  140.7592  171.0942 C.3     1  UNL1        0.1869
     16 C         139.8744  139.6299  171.1193 C.3     1  UNL1        0.0417
     17 O         140.7414  141.8821  172.0814 O.3     1  UNL1       -0.3758
     18 H         139.9785  141.7244  172.6594 H       1  UNL1        0.2110
     19 C         144.1451  143.1962  161.3571 C.3     1  UNL1        0.2525
     20 O         143.2998  144.4187  161.5594 O.3     1  UNL1       -0.4701
     21 N         140.7233  145.8396  160.9739 N.pl3   1  UNL1       -0.2802
     22 H         140.5930  146.8154  160.9679 H       1  UNL1        0.1552
     23 C         140.7440  145.0778  159.6819 C.ar    1  UNL1        0.2208
     24 N         141.8115  145.3545  158.6651 N.ar    1  UNL1       -0.2111
     25 C         141.8322  144.5927  157.3732 C.ar    1  UNL1        0.1147
     26 C         140.7854  143.5542  157.0980 C.ar    1  UNL1        0.0960
     27 CL        140.8062  142.7924  155.8060 Cl      1  UNL1       -0.0790
     28 C         139.7179  143.2775  158.1149 C.ar    1  UNL1        0.1138
     29 N         139.6973  144.0393  159.4068 N.ar    1  UNL1       -0.2111
     30 C         138.6711  142.2389  157.8397 C.ar    1  UNL1        0.1031
     31 C         138.4893  140.9509  158.5866 C.ar    1  UNL1        0.1196
     32 N         137.3282  140.2220  157.9778 N.ar    1  UNL1       -0.2248
     33 C         136.7924  141.0597  156.8547 C.ar    1  UNL1        0.1479
     34 C         135.6560  140.8484  155.8987 C.ar    1  UNL1        0.0374
     35 C         135.3496  141.8836  154.8574 C.ar    1  UNL1        0.0046
     36 C         136.1796  143.1302  154.7721 C.ar    1  UNL1        0.0191
     37 C         137.3160  143.3414  155.7280 C.ar    1  UNL1        0.0815
     38 N         137.6224  142.3062  156.7693 N.ar    1  UNL1       -0.2874
@<TRIPOS>BOND
     1    19    20    1
     2    20     1    1
     3     1     2   ar
     4     2     3   ar
     5     3     7    1
     6     7     8    1
     7     8     9    1
     8     9    10    1
     9    10    11   am
    10    11    12    2
    11    11    15    1
    12    15    16    1
    13    15    17    1
    14    10    13    1
    15    13    14    1
    16     3     4   ar
    17     4     5   ar
    18     5     6   ar
    19     6    21    1
    20    21    23    1
    21    23    24   ar
    22    24    25   ar
    23    25    26   ar
    24    26    27    1
    25    26    28   ar
    26    28    30    1
    27    30    31   ar
    28    31    32   ar
    29    32    33   ar
    30    33    34   ar
    31    34    35   ar
    32    35    36   ar
    33    36    37   ar
    34    37    38   ar
    35    28    29   ar
    36     6     1   ar
    37    29    23   ar
    38    14     7    1
    39    38    30   ar
    40    38    33   ar
    41    17    18    1
    42    21    22    1
@<TRIPOS>MOLECULE
*****
 38 42 0 0 0
SMALL
GASTEIGER

@<TRIPOS>ATOM
      1 C         138.0085  140.3044  163.0010 C.ar    1  UNL1        0.1533
      2 C         138.6038  140.5935  164.3472 C.ar    1  UNL1        0.0527
      3 C         139.3283  139.5134  165.0944 C.ar    1  UNL1        0.0511
      4 C         139.4576  138.1442  164.4956 C.ar    1  UNL1        0.0160
      5 C         138.8623  137.8551  163.1495 C.ar    1  UNL1        0.0190
      6 C         138.1377  138.9352  162.4021 C.ar    1  UNL1        0.0850
      7 N         139.9236  139.8025  166.4405 N.pl3   1  UNL1       -0.3040
      8 C         141.4062  139.9808  166.5822 C.3     1  UNL1        0.1123
      9 C         142.0016  140.2700  167.9284 C.3     1  UNL1        0.1149
     10 N         141.1143  140.3808  169.1327 N.am    1  UNL1       -0.2741
     11 C         141.7095  140.6700  170.4789 C.2     1  UNL1        0.2526
     12 O         140.8223  140.7808  171.6832 O.2     1  UNL1       -0.2723
     13 C         139.6317  140.2025  168.9909 C.3     1  UNL1        0.1149
     14 C         139.0363  139.9133  167.6449 C.3     1  UNL1        0.1123
     15 C         143.1922  140.8483  170.6206 C.3     1  UNL1        0.1869
     16 C         143.8512  142.0912  170.1003 C.3     1  UNL1        0.0417
     17 O         144.0157  139.7837  171.2826 O.3     1  UNL1       -0.3758
     18 H         144.9471  140.0545  171.2920 H       1  UNL1        0.2110
     19 C         137.7942  142.7945  162.2915 C.3     1  UNL1        0.2525
     20 O         137.2839  141.3845  162.2537 O.3     1  UNL1       -0.4701
     21 N         137.5424  138.6460  161.0560 N.pl3   1  UNL1       -0.2802
     22 H         136.7597  138.0537  160.9809 H       1  UNL1        0.1552
     23 C         138.1397  139.2594  159.8244 C.ar    1  UNL1        0.2208
     24 N         137.3841  140.3120  159.0688 N.ar    1  UNL1       -0.2111
     25 C         137.9813  140.9254  157.8371 C.ar    1  UNL1        0.1147
     26 C         139.3343  140.4861  157.3610 C.ar    1  UNL1        0.0960
     27 CL        139.9316  141.0995  156.1293 Cl      1  UNL1       -0.0790
     28 C         140.0900  139.4334  158.1167 C.ar    1  UNL1        0.1138
     29 N         139.4926  138.8201  159.3483 N.ar    1  UNL1       -0.2111
     30 C         141.4429  138.9941  157.6406 C.ar    1  UNL1        0.1031
     31 C         142.7488  139.6594  157.9600 C.ar    1  UNL1        0.1196
     32 N         143.8404  138.8888  157.2783 N.ar    1  UNL1       -0.2248
     33 C         143.2091  137.7474  156.5376 C.ar    1  UNL1        0.1479
     34 C         143.7921  136.6573  155.6881 C.ar    1  UNL1        0.0374
     35 C         142.8933  135.6322  155.0626 C.ar    1  UNL1        0.0046
     36 C         141.4116  135.6973  155.2865 C.ar    1  UNL1        0.0191
     37 C         140.8286  136.7874  156.1359 C.ar    1  UNL1        0.0815
     38 N         141.7274  137.8125  156.7615 N.ar    1  UNL1       -0.2874
@<TRIPOS>BOND
     1    19    20    1
     2    20     1    1
     3     1     2   ar
     4     2     3   ar
     5     3     7    1
     6     7     8    1
     7     8     9    1
     8     9    10    1
     9    10    11   am
    10    11    12    2
    11    11    15    1
    12    15    16    1
    13    15    17    1
    14    10    13    1
    15    13    14    1
    16     3     4   ar
    17     4     5   ar
    18     5     6   ar
    19     6    21    1
    20    21    23    1
    21    23    24   ar
    22    24    25   ar
    23    25    26   ar
    24    26    27    1
    25    26    28   ar
    26    28    30    1
    27    30    31   ar
    28    31    32   ar
    29    32    33   ar
    30    33    34   ar
    31    34    35   ar
    32    35    36   ar
    33    36    37   ar
    34    37    38   ar
    35    28    29   ar
    36     6     1   ar
    37    29    23   ar
    38    14     7    1
    39    38    30   ar
    40    38    33   ar
    41    17    18    1
    42    21    22    1
@<TRIPOS>MOLECULE
*****
 38 42 0 0 0
SMALL
GASTEIGER

@<TRIPOS>ATOM
      1 C         141.6462  138.0180  163.1659 C.ar    1  UNL1        0.1533
      2 C         141.3015  138.6380  164.4877 C.ar    1  UNL1        0.0527
      3 C         142.3449  139.3926  165.2571 C.ar    1  UNL1        0.0511
      4 C         143.7329  139.5273  164.7047 C.ar    1  UNL1        0.0160
      5 C         144.0776  138.9074  163.3830 C.ar    1  UNL1        0.0190
      6 C         143.0342  138.1528  162.6136 C.ar    1  UNL1        0.0850
      7 N         142.0001  140.0124  166.5788 N.pl3   1  UNL1       -0.3040
      8 C         141.0719  141.1894  166.6358 C.3     1  UNL1        0.1123
      9 C         140.7271  141.8093  167.9575 C.3     1  UNL1        0.1149
     10 N         141.3105  141.2523  169.2221 N.am    1  UNL1       -0.2741
     11 C         140.9658  141.8721  170.5438 C.2     1  UNL1        0.2526
     12 O         141.5492  141.3151  171.8085 O.2     1  UNL1       -0.2723
     13 C         142.2387  140.0753  169.1651 C.3     1  UNL1        0.1149
     14 C         142.5835  139.4554  167.8434 C.3     1  UNL1        0.1123
     15 C         140.0376  143.0491  170.6009 C.3     1  UNL1        0.1869
     16 C         140.4665  144.3706  170.0356 C.3     1  UNL1        0.0417
     17 O         138.6804  142.9045  171.2231 O.3     1  UNL1       -0.3758
     18 H         138.2121  143.7528  171.1783 H       1  UNL1        0.2110
     19 C         139.6171  138.0053  161.5433 C.3     1  UNL1        0.2525
     20 O         140.6028  137.2634  162.3966 O.3     1  UNL1       -0.4701
     21 N         143.3789  137.5329  161.2919 N.pl3   1  UNL1       -0.2802
     22 H         143.7926  136.6401  161.2599 H       1  UNL1        0.1552
     23 C         143.0935  138.2733  160.0190 C.ar    1  UNL1        0.2208
     24 N         142.9440  137.5199  158.7305 N.ar    1  UNL1       -0.2111
     25 C         142.6586  138.2603  157.4576 C.ar    1  UNL1        0.1147
     26 C         142.5225  139.7541  157.4731 C.ar    1  UNL1        0.0960
     27 CL        142.2370  140.4944  156.2002 Cl      1  UNL1       -0.0790
     28 C         142.6720  140.5075  158.7617 C.ar    1  UNL1        0.1138
     29 N         142.9574  139.7671  160.0345 N.ar    1  UNL1       -0.2111
     30 C         142.5359  142.0012  158.7772 C.ar    1  UNL1        0.1031
     31 C         143.3432  142.9685  157.9632 C.ar    1  UNL1        0.1196
     32 N         142.8749  144.3550  158.2924 N.ar    1  UNL1       -0.2248
     33 C         141.7782  144.2446  159.3098 C.ar    1  UNL1        0.1479
     34 C         140.9433  145.2807  160.0020 C.ar    1  UNL1        0.0374
     35 C         139.8989  144.8621  160.9939 C.ar    1  UNL1        0.0046
     36 C         139.6894  143.4073  161.2935 C.ar    1  UNL1        0.0191
     37 C         140.5243  142.3712  160.6013 C.ar    1  UNL1        0.0815
     38 N         141.5687  142.7898  159.6094 N.ar    1  UNL1       -0.2874
@<TRIPOS>BOND
     1    19    20    1
     2    20     1    1
     3     1     2   ar
     4     2     3   ar
     5     3     7    1
     6     7     8    1
     7     8     9    1
     8     9    10    1
     9    10    11   am
    10    11    12    2
    11    11    15    1
    12    15    16    1
    13    15    17    1
    14    10    13    1
    15    13    14    1
    16     3     4   ar
    17     4     5   ar
    18     5     6   ar
    19     6    21    1
    20    21    23    1
    21    23    24   ar
    22    24    25   ar
    23    25    26   ar
    24    26    27    1
    25    26    28   ar
    26    28    30    1
    27    30    31   ar
    28    31    32   ar
    29    32    33   ar
    30    33    34   ar
    31    34    35   ar
    32    35    36   ar
    33    36    37   ar
    34    37    38   ar
    35    28    29   ar
    36     6     1   ar
    37    29    23   ar
    38    14     7    1
    39    38    30   ar
    40    38    33   ar
    41    17    18    1
    42    21    22    1
@<TRIPOS>MOLECULE
*****
 38 42 0 0 0
SMALL
GASTEIGER

@<TRIPOS>ATOM
      1 C         142.2443  144.0515  162.2710 C.ar    1  UNL1        0.1533
      2 C         142.4287  143.2083  163.4979 C.ar    1  UNL1        0.0527
      3 C         141.3830  143.2101  164.5733 C.ar    1  UNL1        0.0511
      4 C         140.1530  144.0551  164.4219 C.ar    1  UNL1        0.0160
      5 C         139.9686  144.8983  163.1951 C.ar    1  UNL1        0.0190
      6 C         141.0142  144.8965  162.1196 C.ar    1  UNL1        0.0850
      7 N         141.5675  142.3670  165.8001 N.pl3   1  UNL1       -0.3040
      8 C         140.8319  142.7080  167.0620 C.3     1  UNL1        0.1123
      9 C         141.0163  141.8649  168.2889 C.3     1  UNL1        0.1149
     10 N         141.9364  140.6808  168.2537 N.am    1  UNL1       -0.2741
     11 C         142.1209  139.8376  169.4806 C.2     1  UNL1        0.2526
     12 O         143.0409  138.6534  169.4455 O.2     1  UNL1       -0.2723
     13 C         142.6720  140.3397  166.9918 C.3     1  UNL1        0.1149
     14 C         142.4876  141.1828  165.7650 C.3     1  UNL1        0.1123
     15 C         141.3852  140.1786  170.7425 C.3     1  UNL1        0.1869
     16 C         139.9157  139.8989  170.8529 C.3     1  UNL1        0.0417
     17 O         142.1191  140.7993  171.8941 O.3     1  UNL1       -0.3758
     18 H         141.5011  140.9547  172.6254 H       1  UNL1        0.2110
     19 C         143.3285  142.9383  160.1888 C.3     1  UNL1        0.2525
     20 O         143.2899  144.0496  161.1955 O.3     1  UNL1       -0.4701
     21 N         140.8297  145.7396  160.8928 N.pl3   1  UNL1       -0.2802
     22 H         141.0253  146.7040  160.9244 H       1  UNL1        0.1552
     23 C         140.3472  145.1135  159.6180 C.ar    1  UNL1        0.2208
     24 N         139.5178  143.8646  159.6629 N.ar    1  UNL1       -0.2111
     25 C         139.0353  143.2385  158.3880 C.ar    1  UNL1        0.1147
     26 C         139.3822  143.8614  157.0683 C.ar    1  UNL1        0.0960
     27 CL        138.8997  143.2353  155.7935 Cl      1  UNL1       -0.0790
     28 C         140.2118  145.1105  157.0235 C.ar    1  UNL1        0.1138
     29 N         140.6942  145.7364  158.2983 N.ar    1  UNL1       -0.2111
     30 C         140.5587  145.7334  155.7038 C.ar    1  UNL1        0.1031
     31 C         141.4244  145.1235  154.6414 C.ar    1  UNL1        0.1196
     32 N         141.5016  146.0887  153.4958 N.ar    1  UNL1       -0.2248
     33 C         140.6836  147.2951  153.8502 C.ar    1  UNL1        0.1479
     34 C         140.3942  148.5652  153.1066 C.ar    1  UNL1        0.0374
     35 C         139.5219  149.6157  153.7276 C.ar    1  UNL1        0.0046
     36 C         138.9392  149.3961  155.0922 C.ar    1  UNL1        0.0191
     37 C         139.2287  148.1260  155.8358 C.ar    1  UNL1        0.0815
     38 N         140.1009  147.0755  155.2148 N.ar    1  UNL1       -0.2874
@<TRIPOS>BOND
     1    19    20    1
     2    20     1    1
     3     1     2   ar
     4     2     3   ar
     5     3     7    1
     6     7     8    1
     7     8     9    1
     8     9    10    1
     9    10    11   am
    10    11    12    2
    11    11    15    1
    12    15    16    1
    13    15    17    1
    14    10    13    1
    15    13    14    1
    16     3     4   ar
    17     4     5   ar
    18     5     6   ar
    19     6    21    1
    20    21    23    1
    21    23    24   ar
    22    24    25   ar
    23    25    26   ar
    24    26    27    1
    25    26    28   ar
    26    28    30    1
    27    30    31   ar
    28    31    32   ar
    29    32    33   ar
    30    33    34   ar
    31    34    35   ar
    32    35    36   ar
    33    36    37   ar
    34    37    38   ar
    35    28    29   ar
    36     6     1   ar
    37    29    23   ar
    38    14     7    1
    39    38    30   ar
    40    38    33   ar
    41    17    18    1
    42    21    22    1
@<TRIPOS>MOLECULE
*****
 38 42 0 0 0
SMALL
GASTEIGER

@<TRIPOS>ATOM
      1 C         143.9073  140.7613  161.5874 C.ar    1  UNL1        0.1533
      2 C         143.6743  141.1101  163.0277 C.ar    1  UNL1        0.0527
      3 C         143.2986  140.0384  164.0076 C.ar    1  UNL1        0.0511
      4 C         143.1558  138.6180  163.5474 C.ar    1  UNL1        0.0160
      5 C         143.3888  138.2691  162.1073 C.ar    1  UNL1        0.0190
      6 C         143.7645  139.3408  161.1272 C.ar    1  UNL1        0.0850
      7 N         143.0657  140.3873  165.4477 N.pl3   1  UNL1       -0.3040
      8 C         142.9511  141.8244  165.8621 C.3     1  UNL1        0.1123
      9 C         142.7181  142.1734  167.3023 C.3     1  UNL1        0.1149
     10 N         142.5999  141.0853  168.3280 N.am    1  UNL1       -0.2741
     11 C         142.3669  141.4342  169.7682 C.2     1  UNL1        0.2526
     12 O         142.2486  140.3462  170.7939 O.2     1  UNL1       -0.2723
     13 C         142.7145  139.6483  167.9136 C.3     1  UNL1        0.1149
     14 C         142.9474  139.2993  166.4734 C.3     1  UNL1        0.1123
     15 C         142.2523  142.8713  170.1826 C.3     1  UNL1        0.1869
     16 C         140.9879  143.6314  169.9117 C.3     1  UNL1        0.0417
     17 O         143.4021  143.5483  170.8678 O.3     1  UNL1       -0.3758
     18 H         143.1645  144.4676  171.0661 H       1  UNL1        0.2110
     19 C         143.2477  142.8060  160.1266 C.3     1  UNL1        0.2525
     20 O         144.2830  141.8330  160.6075 O.3     1  UNL1       -0.4701
     21 N         143.9974  138.9919  159.6871 N.pl3   1  UNL1       -0.2802
     22 H         144.9029  139.0543  159.3058 H       1  UNL1        0.1552
     23 C         142.8508  138.5480  158.8280 C.ar    1  UNL1        0.2208
     24 N         141.4800  139.1124  159.0565 N.ar    1  UNL1       -0.2111
     25 C         140.3333  138.6684  158.1974 C.ar    1  UNL1        0.1147
     26 C         140.5575  137.6601  157.1097 C.ar    1  UNL1        0.0960
     27 CL        139.4109  137.2162  156.2506 Cl      1  UNL1       -0.0790
     28 C         141.9285  137.0957  156.8812 C.ar    1  UNL1        0.1138
     29 N         143.0750  137.5397  157.7403 N.ar    1  UNL1       -0.2111
     30 C         142.1526  136.0874  155.7935 C.ar    1  UNL1        0.1031
     31 C         141.9173  136.3043  154.3280 C.ar    1  UNL1        0.1196
     32 N         142.2707  135.0361  153.6092 N.ar    1  UNL1       -0.2248
     33 C         142.7246  134.0355  154.6303 C.ar    1  UNL1        0.1479
     34 C         143.1949  132.6166  154.5053 C.ar    1  UNL1        0.0374
     35 C         143.5922  131.8475  155.7303 C.ar    1  UNL1        0.0046
     36 C         143.5192  132.4973  157.0803 C.ar    1  UNL1        0.0191
     37 C         143.0489  133.9162  157.2053 C.ar    1  UNL1        0.0815
     38 N         142.6516  134.6852  155.9803 N.ar    1  UNL1       -0.2874
@<TRIPOS>BOND
     1    19    20    1
     2    20     1    1
     3     1     2   ar
     4     2     3   ar
     5     3     7    1
     6     7     8    1
     7     8     9    1
     8     9    10    1
     9    10    11   am
    10    11    12    2
    11    11    15    1
    12    15    16    1
    13    15    17    1
    14    10    13    1
    15    13    14    1
    16     3     4   ar
    17     4     5   ar
    18     5     6   ar
    19     6    21    1
    20    21    23    1
    21    23    24   ar
    22    24    25   ar
    23    25    26   ar
    24    26    27    1
    25    26    28   ar
    26    28    30    1
    27    30    31   ar
    28    31    32   ar
    29    32    33   ar
    30    33    34   ar
    31    34    35   ar
    32    35    36   ar
    33    36    37   ar
    34    37    38   ar
    35    28    29   ar
    36     6     1   ar
    37    29    23   ar
    38    14     7    1
    39    38    30   ar
    40    38    33   ar
    41    17    18    1
    42    21    22    1
@<TRIPOS>MOLECULE
*****
 38 42 0 0 0
SMALL
GASTEIGER

@<TRIPOS>ATOM
      1 C         140.2614  143.9977  162.4107 C.ar    1  UNL1        0.1533
      2 C         140.3397  143.1766  163.6637 C.ar    1  UNL1        0.0527
      3 C         141.6162  143.1277  164.4498 C.ar    1  UNL1        0.0511
      4 C         142.8145  143.8998  163.9832 C.ar    1  UNL1        0.0160
      5 C         142.7363  144.7209  162.7303 C.ar    1  UNL1        0.0190
      6 C         141.4597  144.7699  161.9440 C.ar    1  UNL1        0.0850
      7 N         141.6943  142.3066  165.7027 N.pl3   1  UNL1       -0.3040
      8 C         140.8330  142.6525  166.8810 C.3     1  UNL1        0.1123
      9 C         140.9111  141.8314  168.1339 C.3     1  UNL1        0.1149
     10 N         141.8505  140.6645  168.2085 N.am    1  UNL1       -0.2741
     11 C         141.9287  139.8433  169.4614 C.2     1  UNL1        0.2526
     12 O         142.8681  138.6763  169.5359 O.2     1  UNL1       -0.2723
     13 C         142.7119  140.3185  167.0301 C.3     1  UNL1        0.1149
     14 C         142.6338  141.1396  165.7773 C.3     1  UNL1        0.1123
     15 C         141.0673  140.1892  170.6397 C.3     1  UNL1        0.1869
     16 C         141.3422  141.4343  171.4298 C.3     1  UNL1        0.0417
     17 O         139.9311  139.2902  171.0278 O.3     1  UNL1       -0.3758
     18 H         139.4798  139.6564  171.8044 H       1  UNL1        0.2110
     19 C         138.4443  142.7978  160.9936 C.3     1  UNL1        0.2525
     20 O         138.9849  144.0466  161.6246 O.3     1  UNL1       -0.4701
     21 N         141.3816  145.5910  160.6912 N.pl3   1  UNL1       -0.2802
     22 H         141.3210  146.5719  160.7486 H       1  UNL1        0.1552
     23 C         141.3958  144.9176  159.3510 C.ar    1  UNL1        0.2208
     24 N         142.6532  144.2713  158.8497 N.ar    1  UNL1       -0.2111
     25 C         142.6674  143.5978  157.5094 C.ar    1  UNL1        0.1147
     26 C         141.4243  143.5708  156.6704 C.ar    1  UNL1        0.0960
     27 CL        141.4385  142.8973  155.3302 Cl      1  UNL1       -0.0790
     28 C         140.1668  144.2171  157.1718 C.ar    1  UNL1        0.1138
     29 N         140.1527  144.8905  158.5120 N.ar    1  UNL1       -0.2111
     30 C         138.9237  144.1900  156.3328 C.ar    1  UNL1        0.1031
     31 C         138.4611  145.2757  155.4069 C.ar    1  UNL1        0.1196
     32 N         137.1764  144.8291  154.7743 N.ar    1  UNL1       -0.2248
     33 C         136.8451  143.4675  155.3092 C.ar    1  UNL1        0.1479
     34 C         135.6996  142.5362  155.0436 C.ar    1  UNL1        0.0374
     35 C         135.6340  141.2100  155.7412 C.ar    1  UNL1        0.0046
     36 C         136.7139  140.8150  156.7044 C.ar    1  UNL1        0.0191
     37 C         137.8594  141.7462  156.9700 C.ar    1  UNL1        0.0815
     38 N         137.9250  143.0725  156.2724 N.ar    1  UNL1       -0.2874
@<TRIPOS>BOND
     1    19    20    1
     2    20     1    1
     3     1     2   ar
     4     2     3   ar
     5     3     7    1
     6     7     8    1
     7     8     9    1
     8     9    10    1
     9    10    11   am
    10    11    12    2
    11    11    15    1
    12    15    16    1
    13    15    17    1
    14    10    13    1
    15    13    14    1
    16     3     4   ar
    17     4     5   ar
    18     5     6   ar
    19     6    21    1
    20    21    23    1
    21    23    24   ar
    22    24    25   ar
    23    25    26   ar
    24    26    27    1
    25    26    28   ar
    26    28    30    1
    27    30    31   ar
    28    31    32   ar
    29    32    33   ar
    30    33    34   ar
    31    34    35   ar
    32    35    36   ar
    33    36    37   ar
    34    37    38   ar
    35    28    29   ar
    36     6     1   ar
    37    29    23   ar
    38    14     7    1
    39    38    30   ar
    40    38    33   ar
    41    17    18    1
    42    21    22    1
