@<TRIPOS>MOLECULE
*****
 27 29 0 0 0
SMALL
GASTEIGER

@<TRIPOS>ATOM
      1 C         138.8305  139.5100  166.2500 C.ar    1  UNL1        0.0395
      2 C         138.4060  140.4857  165.1927 C.ar    1  UNL1        0.0063
      3 C         138.2710  140.0361  163.7681 C.ar    1  UNL1        0.0376
      4 C         138.5606  138.6109  163.4008 C.ar    1  UNL1        0.1453
      5 C         138.9851  137.6352  164.4580 C.ar    1  UNL1        0.0376
      6 C         139.1201  138.0848  165.8827 C.ar    1  UNL1        0.0063
      7 N         139.6900  141.1537  169.6596 N.ar    1  UNL1       -0.1492
      8 N         138.6563  140.1490  170.0746 N.ar    1  UNL1       -0.0450
      9 N         138.2085  139.4110  168.8478 N.ar    1  UNL1       -0.1077
     10 C         138.9655  139.9596  167.6747 C.ar    1  UNL1        0.2058
     11 N         139.8810  141.0366  168.1765 N.ar    1  UNL1       -0.1296
     12 C         140.4067  142.1079  170.5684 C.3     1  UNL1        0.1723
     13 N         142.2932  140.7665  171.7481 N.3     1  UNL1       -0.3162
     14 CA        141.8616  141.9049  170.8720 C.3     1  UNL1        0.1145
     15 H1        141.4737  140.2373  172.0462 H       1  UNL1        0.1192
     16 H2        142.7779  141.1328  172.5674 H       1  UNL1        0.1192
     17 C         142.8848  142.8405  170.2994 C.2     1  UNL1        0.0664
     18 O         143.4056  142.6228  168.9097 O.co2   1  UNL1       -0.5477
     19 OXT       143.3873  143.9936  171.1166 O.co2   1  UNL1       -0.5477
     20 O         138.4256  138.1613  161.9760 O.3     1  UNL1       -0.4535
     21 C         139.5710  138.3347  161.0232 C.ar    1  UNL1        0.1454
     22 C         139.3165  138.8073  159.6225 C.ar    1  UNL1        0.0384
     23 C         140.4620  138.9806  158.6696 C.ar    1  UNL1        0.0145
     24 C         141.8619  138.6813  159.1175 C.ar    1  UNL1        0.0579
     25 CL        143.0073  138.8547  158.1646 Cl      1  UNL1       -0.0822
     26 C         142.1164  138.2087  160.5181 C.ar    1  UNL1        0.0145
     27 C         140.9711  138.0354  161.4710 C.ar    1  UNL1        0.0384
@<TRIPOS>UNITY_ATOM_ATTR
18 1
charge -1
@<TRIPOS>BOND
     1    14    13    1
     2    14    12    1
     3    12     7    1
     4     7     8   ar
     5     8     9   ar
     6     9    10   ar
     7    10     1    1
     8     1     2   ar
     9     2     3   ar
    10     3     4   ar
    11     4    20    1
    12    20    21    1
    13    21    22   ar
    14    22    23   ar
    15    23    24   ar
    16    24    25    1
    17    24    26   ar
    18    26    27   ar
    19     4     5   ar
    20     5     6   ar
    21    10    11   ar
    22    14    17    1
    23    17    18   ar
    24    17    19   ar
    25    11     7   ar
    26     6     1   ar
    27    27    21   ar
    28    13    15    1
    29    13    16    1
@<TRIPOS>MOLECULE
*****
 27 29 0 0 0
SMALL
GASTEIGER

@<TRIPOS>ATOM
      1 C         139.0472  139.2880  165.6956 C.ar    1  UNL1        0.0395
      2 C         139.2744  137.9327  165.0946 C.ar    1  UNL1        0.0063
      3 C         138.9016  137.6742  163.6648 C.ar    1  UNL1        0.0376
      4 C         138.3016  138.7711  162.8361 C.ar    1  UNL1        0.1453
      5 C         138.0745  140.1265  163.4371 C.ar    1  UNL1        0.0376
      6 C         138.4473  140.3850  164.8668 C.ar    1  UNL1        0.0063
      7 N         140.6986  140.0902  169.1154 N.ar    1  UNL1       -0.1492
      8 N         139.2885  139.7986  169.5358 N.ar    1  UNL1       -0.0450
      9 N         138.4983  139.4626  168.3058 N.ar    1  UNL1       -0.1077
     10 C         139.4200  139.5466  167.1254 C.ar    1  UNL1        0.2058
     11 N         140.7798  139.9345  167.6257 N.ar    1  UNL1       -0.1296
     12 C         141.8290  140.4708  170.0250 C.3     1  UNL1        0.1723
     13 N         140.8437  142.1692  171.7262 N.3     1  UNL1       -0.3162
     14 CA        141.8502  141.8255  170.6686 C.3     1  UNL1        0.1145
     15 H1        140.2272  141.3715  171.8810 H       1  UNL1        0.1192
     16 H2        140.2918  142.9715  171.4225 H       1  UNL1        0.1192
     17 C         142.8781  142.8365  170.2545 C.2     1  UNL1        0.0664
     18 O         143.5708  142.7027  168.9308 O.co2   1  UNL1       -0.5477
     19 OXT       143.2131  143.9812  171.1640 O.co2   1  UNL1       -0.5477
     20 O         137.9289  138.5126  161.4063 O.3     1  UNL1       -0.4535
     21 C         138.6598  139.2164  160.3016 C.ar    1  UNL1        0.1454
     22 C         140.0439  138.7807  159.9215 C.ar    1  UNL1        0.0384
     23 C         140.7749  139.4845  158.8168 C.ar    1  UNL1        0.0145
     24 C         140.1218  140.6240  158.0922 C.ar    1  UNL1        0.0579
     25 CL        140.8527  141.3277  156.9875 Cl      1  UNL1       -0.0822
     26 C         138.7377  141.0596  158.4723 C.ar    1  UNL1        0.0145
     27 C         138.0067  140.3559  159.5770 C.ar    1  UNL1        0.0384
@<TRIPOS>UNITY_ATOM_ATTR
18 1
charge -1
@<TRIPOS>BOND
     1    14    13    1
     2    14    12    1
     3    12     7    1
     4     7     8   ar
     5     8     9   ar
     6     9    10   ar
     7    10     1    1
     8     1     2   ar
     9     2     3   ar
    10     3     4   ar
    11     4    20    1
    12    20    21    1
    13    21    22   ar
    14    22    23   ar
    15    23    24   ar
    16    24    25    1
    17    24    26   ar
    18    26    27   ar
    19     4     5   ar
    20     5     6   ar
    21    10    11   ar
    22    14    17    1
    23    17    18   ar
    24    17    19   ar
    25    11     7   ar
    26     6     1   ar
    27    27    21   ar
    28    13    15    1
    29    13    16    1
@<TRIPOS>MOLECULE
*****
 27 29 0 0 0
SMALL
GASTEIGER

@<TRIPOS>ATOM
      1 C         138.3580  139.5295  164.3115 C.ar    1  UNL1        0.0395
      2 C         138.8894  138.3780  163.5105 C.ar    1  UNL1        0.0063
      3 C         138.8195  138.4108  162.0125 C.ar    1  UNL1        0.0376
      4 C         138.2182  139.5952  161.3155 C.ar    1  UNL1        0.1453
      5 C         137.6868  140.7467  162.1165 C.ar    1  UNL1        0.0376
      6 C         137.7567  140.7138  163.6145 C.ar    1  UNL1        0.0063
      7 N         139.1001  139.9395  168.0992 N.ar    1  UNL1       -0.1492
      8 N         137.9707  138.9528  168.1303 N.ar    1  UNL1       -0.0450
      9 N         137.5553  138.6791  166.7152 N.ar    1  UNL1       -0.1077
     10 C         138.4279  139.4967  165.8096 C.ar    1  UNL1        0.2058
     11 N         139.3826  140.2756  166.6649 N.ar    1  UNL1       -0.1296
     12 C         139.8205  140.4929  169.2929 C.3     1  UNL1        0.1723
     13 N         140.6928  142.6124  168.0697 N.3     1  UNL1       -0.3162
     14 CA        140.2209  141.9381  169.3237 C.3     1  UNL1        0.1145
     15 H1        140.6779  141.9450  167.2985 H       1  UNL1        0.1192
     16 H2        141.6441  142.9546  168.2049 H       1  UNL1        0.1192
     17 C         140.1496  142.7089  170.6085 C.2     1  UNL1        0.0664
     18 O         139.7584  144.1568  170.5936 O.co2   1  UNL1       -0.5477
     19 OXT       140.4694  142.0318  171.9082 O.co2   1  UNL1       -0.5477
     20 O         138.1483  139.6280  159.8175 O.3     1  UNL1       -0.4535
     21 C         139.4091  139.5762  159.0065 C.ar    1  UNL1        0.1454
     22 C         140.2603  140.8030  158.8644 C.ar    1  UNL1        0.0384
     23 C         141.5212  140.7512  158.0534 C.ar    1  UNL1        0.0145
     24 C         141.9307  139.4725  157.3846 C.ar    1  UNL1        0.0579
     25 CL        143.1915  139.4207  156.5736 Cl      1  UNL1       -0.0822
     26 C         141.0795  138.2457  157.5268 C.ar    1  UNL1        0.0145
     27 C         139.8187  138.2975  158.3377 C.ar    1  UNL1        0.0384
@<TRIPOS>UNITY_ATOM_ATTR
18 1
charge -1
@<TRIPOS>BOND
     1    14    13    1
     2    14    12    1
     3    12     7    1
     4     7     8   ar
     5     8     9   ar
     6     9    10   ar
     7    10     1    1
     8     1     2   ar
     9     2     3   ar
    10     3     4   ar
    11     4    20    1
    12    20    21    1
    13    21    22   ar
    14    22    23   ar
    15    23    24   ar
    16    24    25    1
    17    24    26   ar
    18    26    27   ar
    19     4     5   ar
    20     5     6   ar
    21    10    11   ar
    22    14    17    1
    23    17    18   ar
    24    17    19   ar
    25    11     7   ar
    26     6     1   ar
    27    27    21   ar
    28    13    15    1
    29    13    16    1
@<TRIPOS>MOLECULE
*****
 27 29 0 0 0
SMALL
GASTEIGER

@<TRIPOS>ATOM
      1 C         143.3320  138.6599  162.7998 C.ar    1  UNL1        0.0395
      2 C         144.4690  139.3031  163.5370 C.ar    1  UNL1        0.0063
      3 C         144.4872  139.3010  165.0368 C.ar    1  UNL1        0.0376
      4 C         143.3683  138.6557  165.7995 C.ar    1  UNL1        0.1453
      5 C         142.2313  138.0125  165.0624 C.ar    1  UNL1        0.0376
      6 C         142.2131  138.0146  163.5625 C.ar    1  UNL1        0.0063
      7 N         142.7974  138.0960  158.9969 N.ar    1  UNL1       -0.1492
      8 N         143.7743  139.2343  158.9866 N.ar    1  UNL1       -0.0450
      9 N         144.0935  139.5840  160.4099 N.ar    1  UNL1       -0.1077
     10 C         143.3138  138.6619  161.2999 C.ar    1  UNL1        0.2058
     11 N         142.5128  137.7423  160.4266 N.ar    1  UNL1       -0.1296
     12 C         142.2085  137.4287  157.7895 C.3     1  UNL1        0.1723
     13 N         144.0993  137.5975  156.0158 N.3     1  UNL1       -0.3162
     14 CA        143.1062  136.7745  156.7815 C.3     1  UNL1        0.1145
     15 H1        144.0275  138.5730  156.3051 H       1  UNL1        0.1192
     16 H2        143.9043  137.5237  155.0173 H       1  UNL1        0.1192
     17 C         143.0108  135.2972  156.5392 C.2     1  UNL1        0.0664
     18 O         143.3747  134.3334  157.6293 O.co2   1  UNL1       -0.5477
     19 OXT       142.5515  134.7839  155.2067 O.co2   1  UNL1       -0.5477
     20 O         143.3865  138.6536  167.2995 O.3     1  UNL1       -0.4535
     21 C         142.4629  139.5567  168.0620 C.ar    1  UNL1        0.1454
     22 C         142.1584  139.2741  169.5033 C.ar    1  UNL1        0.0384
     23 C         141.2347  140.1772  170.2657 C.ar    1  UNL1        0.0145
     24 C         140.6158  141.3630  169.5869 C.ar    1  UNL1        0.0579
     25 CL        139.6922  142.2661  170.3494 Cl      1  UNL1       -0.0822
     26 C         140.9203  141.6456  168.1456 C.ar    1  UNL1        0.0145
     27 C         141.8439  140.7425  167.3831 C.ar    1  UNL1        0.0384
@<TRIPOS>UNITY_ATOM_ATTR
18 1
charge -1
@<TRIPOS>BOND
     1    14    13    1
     2    14    12    1
     3    12     7    1
     4     7     8   ar
     5     8     9   ar
     6     9    10   ar
     7    10     1    1
     8     1     2   ar
     9     2     3   ar
    10     3     4   ar
    11     4    20    1
    12    20    21    1
    13    21    22   ar
    14    22    23   ar
    15    23    24   ar
    16    24    25    1
    17    24    26   ar
    18    26    27   ar
    19     4     5   ar
    20     5     6   ar
    21    10    11   ar
    22    14    17    1
    23    17    18   ar
    24    17    19   ar
    25    11     7   ar
    26     6     1   ar
    27    27    21   ar
    28    13    15    1
    29    13    16    1
@<TRIPOS>MOLECULE
*****
 27 29 0 0 0
SMALL
GASTEIGER

@<TRIPOS>ATOM
      1 C         142.9211  139.2212  165.2218 C.ar    1  UNL1        0.0395
      2 C         141.8598  138.2658  164.7629 C.ar    1  UNL1        0.0063
      3 C         141.8728  137.7506  163.3542 C.ar    1  UNL1        0.0376
      4 C         142.9471  138.1909  162.4044 C.ar    1  UNL1        0.1453
      5 C         144.0084  139.1464  162.8634 C.ar    1  UNL1        0.0376
      6 C         143.9954  139.6615  164.2720 C.ar    1  UNL1        0.0063
      7 N         142.7823  141.2262  168.5424 N.ar    1  UNL1       -0.1492
      8 N         142.9943  139.8322  169.0542 N.ar    1  UNL1       -0.0450
      9 N         143.0720  138.9115  167.8725 N.ar    1  UNL1       -0.1077
     10 C         142.9082  139.7365  166.6305 C.ar    1  UNL1        0.2058
     11 N         142.7291  141.1670  167.0445 N.ar    1  UNL1       -0.1296
     12 C         142.6472  142.4624  169.3813 C.3     1  UNL1        0.1723
     13 N         142.0913  142.0141  171.8792 N.3     1  UNL1       -0.3162
     14 CA        141.6723  142.4927  170.5208 C.3     1  UNL1        0.1145
     15 H1        143.0631  141.7061  171.8464 H       1  UNL1        0.1192
     16 H2        141.4972  141.2352  172.1635 H       1  UNL1        0.1192
     17 C         140.2783  143.0015  170.3018 C.2     1  UNL1        0.0664
     18 O         140.0502  144.2303  169.4725 O.co2   1  UNL1       -0.5477
     19 OXT       139.1125  142.2815  170.9122 O.co2   1  UNL1       -0.5477
     20 O         142.9600  137.6757  160.9957 O.3     1  UNL1       -0.4535
     21 C         142.2509  138.4341  159.9132 C.ar    1  UNL1        0.1454
     22 C         143.0348  139.0535  158.7943 C.ar    1  UNL1        0.0384
     23 C         142.3256  139.8120  157.7118 C.ar    1  UNL1        0.0145
     24 C         140.8325  139.9510  157.7482 C.ar    1  UNL1        0.0579
     25 CL        140.1233  140.7095  156.6657 Cl      1  UNL1       -0.0822
     26 C         140.0486  139.3317  158.8670 C.ar    1  UNL1        0.0145
     27 C         140.7577  138.5732  159.9495 C.ar    1  UNL1        0.0384
@<TRIPOS>UNITY_ATOM_ATTR
18 1
charge -1
@<TRIPOS>BOND
     1    14    13    1
     2    14    12    1
     3    12     7    1
     4     7     8   ar
     5     8     9   ar
     6     9    10   ar
     7    10     1    1
     8     1     2   ar
     9     2     3   ar
    10     3     4   ar
    11     4    20    1
    12    20    21    1
    13    21    22   ar
    14    22    23   ar
    15    23    24   ar
    16    24    25    1
    17    24    26   ar
    18    26    27   ar
    19     4     5   ar
    20     5     6   ar
    21    10    11   ar
    22    14    17    1
    23    17    18   ar
    24    17    19   ar
    25    11     7   ar
    26     6     1   ar
    27    27    21   ar
    28    13    15    1
    29    13    16    1
@<TRIPOS>MOLECULE
*****
 27 29 0 0 0
SMALL
GASTEIGER

@<TRIPOS>ATOM
      1 C         139.5804  139.1191  165.7571 C.ar    1  UNL1        0.0395
      2 C         140.6550  138.1265  165.4255 C.ar    1  UNL1        0.0063
      3 C         140.8380  137.6640  164.0104 C.ar    1  UNL1        0.0376
      4 C         139.9464  138.1941  162.9269 C.ar    1  UNL1        0.1453
      5 C         138.8718  139.1867  163.2585 C.ar    1  UNL1        0.0376
      6 C         138.6888  139.6492  164.6736 C.ar    1  UNL1        0.0063
      7 N         139.7228  140.7291  169.2861 N.ar    1  UNL1       -0.1492
      8 N         138.5086  139.8575  169.4139 N.ar    1  UNL1       -0.0450
      9 N         138.3076  139.1483  168.1075 N.ar    1  UNL1       -0.1077
     10 C         139.3974  139.5816  167.1723 C.ar    1  UNL1        0.2058
     11 N         140.2720  140.5585  167.9007 N.ar    1  UNL1       -0.1296
     12 C         140.2883  141.6155  170.3558 C.3     1  UNL1        0.1723
     13 N         140.1377  144.1117  169.6516 N.3     1  UNL1       -0.3162
     14 CA        140.9617  142.9033  169.9843 C.3     1  UNL1        0.1145
     15 H1        139.1474  143.8795  169.7280 H       1  UNL1        0.1192
     16 H2        140.3440  144.4121  168.6988 H       1  UNL1        0.1192
     17 C         142.4592  142.9827  169.9456 C.2     1  UNL1        0.0664
     18 O         143.2222  142.2432  168.8870 O.co2   1  UNL1       -0.5477
     19 OXT       143.1934  143.8017  170.9654 O.co2   1  UNL1       -0.5477
     20 O         140.1294  137.7316  161.5117 O.3     1  UNL1       -0.4535
     21 C         141.1336  138.4074  160.6258 C.ar    1  UNL1        0.1454
     22 C         142.5686  138.4993  161.0526 C.ar    1  UNL1        0.0384
     23 C         143.5728  139.1751  160.1666 C.ar    1  UNL1        0.0145
     24 C         143.1419  139.7589  158.8538 C.ar    1  UNL1        0.0579
     25 CL        144.1461  140.4347  157.9678 Cl      1  UNL1       -0.0822
     26 C         141.7069  139.6670  158.4270 C.ar    1  UNL1        0.0145
     27 C         140.7027  138.9913  159.3129 C.ar    1  UNL1        0.0384
@<TRIPOS>UNITY_ATOM_ATTR
18 1
charge -1
@<TRIPOS>BOND
     1    14    13    1
     2    14    12    1
     3    12     7    1
     4     7     8   ar
     5     8     9   ar
     6     9    10   ar
     7    10     1    1
     8     1     2   ar
     9     2     3   ar
    10     3     4   ar
    11     4    20    1
    12    20    21    1
    13    21    22   ar
    14    22    23   ar
    15    23    24   ar
    16    24    25    1
    17    24    26   ar
    18    26    27   ar
    19     4     5   ar
    20     5     6   ar
    21    10    11   ar
    22    14    17    1
    23    17    18   ar
    24    17    19   ar
    25    11     7   ar
    26     6     1   ar
    27    27    21   ar
    28    13    15    1
    29    13    16    1
@<TRIPOS>MOLECULE
*****
 27 29 0 0 0
SMALL
GASTEIGER

@<TRIPOS>ATOM
      1 C         138.7848  139.1530  162.6234 C.ar    1  UNL1        0.0395
      2 C         138.3084  140.3811  163.3409 C.ar    1  UNL1        0.0063
      3 C         138.1494  140.3640  164.8323 C.ar    1  UNL1        0.0376
      4 C         138.4667  139.1189  165.6062 C.ar    1  UNL1        0.1453
      5 C         138.9431  137.8908  164.8888 C.ar    1  UNL1        0.0376
      6 C         139.1021  137.9078  163.3973 C.ar    1  UNL1        0.0063
      7 N         139.8776  138.9080  158.9070 N.ar    1  UNL1       -0.1492
      8 N         138.4997  139.4843  158.7666 N.ar    1  UNL1       -0.0450
      9 N         137.9228  139.6461  160.1417 N.ar    1  UNL1       -0.1077
     10 C         138.9439  139.1700  161.1319 C.ar    1  UNL1        0.2058
     11 N         140.1520  138.7138  160.3688 N.ar    1  UNL1       -0.1296
     12 C         140.8161  138.5831  157.7829 C.3     1  UNL1        0.1723
     13 N         139.1564  137.0475  156.5034 N.3     1  UNL1       -0.3162
     14 CA        140.5586  137.3891  156.9122 C.3     1  UNL1        0.1145
     15 H1        138.5102  137.7275  156.9040 H       1  UNL1        0.1192
     16 H2        138.9212  136.1145  156.8421 H       1  UNL1        0.1192
     17 C         141.7032  136.5367  156.4504 C.2     1  UNL1        0.0664
     18 O         143.1150  136.9849  156.6866 O.co2   1  UNL1       -0.5477
     19 OXT       141.4360  135.2363  155.7523 O.co2   1  UNL1       -0.5477
     20 O         138.3076  139.1019  167.0977 O.3     1  UNL1       -0.4535
     21 C         139.3213  139.7839  167.9679 C.ar    1  UNL1        0.1454
     22 C         138.9529  140.2054  169.3596 C.ar    1  UNL1        0.0384
     23 C         139.9666  140.8875  170.2298 C.ar    1  UNL1        0.0145
     24 C         141.3487  141.1480  169.7083 C.ar    1  UNL1        0.0579
     25 CL        142.3623  141.8301  170.5785 Cl      1  UNL1       -0.0822
     26 C         141.7171  140.7266  168.3167 C.ar    1  UNL1        0.0145
     27 C         140.7034  140.0446  167.4465 C.ar    1  UNL1        0.0384
@<TRIPOS>UNITY_ATOM_ATTR
18 1
charge -1
@<TRIPOS>BOND
     1    14    13    1
     2    14    12    1
     3    12     7    1
     4     7     8   ar
     5     8     9   ar
     6     9    10   ar
     7    10     1    1
     8     1     2   ar
     9     2     3   ar
    10     3     4   ar
    11     4    20    1
    12    20    21    1
    13    21    22   ar
    14    22    23   ar
    15    23    24   ar
    16    24    25    1
    17    24    26   ar
    18    26    27   ar
    19     4     5   ar
    20     5     6   ar
    21    10    11   ar
    22    14    17    1
    23    17    18   ar
    24    17    19   ar
    25    11     7   ar
    26     6     1   ar
    27    27    21   ar
    28    13    15    1
    29    13    16    1
@<TRIPOS>MOLECULE
*****
 27 29 0 0 0
SMALL
GASTEIGER

@<TRIPOS>ATOM
      1 C         140.3441  139.2951  165.0483 C.ar    1  UNL1        0.0395
      2 C         139.8585  137.9870  164.4980 C.ar    1  UNL1        0.0063
      3 C         139.0178  137.9616  163.2560 C.ar    1  UNL1        0.0376
      4 C         138.6628  139.2444  162.5643 C.ar    1  UNL1        0.1453
      5 C         139.1485  140.5526  163.1146 C.ar    1  UNL1        0.0376
      6 C         139.9891  140.5779  164.3566 C.ar    1  UNL1        0.0063
      7 N         141.9165  139.6865  168.5754 N.ar    1  UNL1       -0.1492
      8 N         143.0406  139.0326  167.8279 N.ar    1  UNL1       -0.0450
      9 N         142.5884  138.8065  166.4156 N.ar    1  UNL1       -0.1077
     10 C         141.1848  139.3205  166.2904 C.ar    1  UNL1        0.2058
     11 N         140.7695  139.8644  167.6252 N.ar    1  UNL1       -0.1296
     12 C         141.9358  140.0914  170.0196 C.3     1  UNL1        0.1723
     13 N         139.4160  139.8785  170.6155 N.3     1  UNL1       -0.3162
     14 CA        140.7000  140.6529  170.6577 C.3     1  UNL1        0.1145
     15 H1        139.5647  139.0006  170.1179 H       1  UNL1        0.1192
     16 H2        138.7041  140.4267  170.1327 H       1  UNL1        0.1192
     17 C         140.7480  141.9889  171.3381 C.2     1  UNL1        0.0664
     18 O         139.5401  142.8781  171.3309 O.co2   1  UNL1       -0.5477
     19 OXT       142.0041  142.4357  172.0257 O.co2   1  UNL1       -0.5477
     20 O         137.8221  139.2190  161.3222 O.3     1  UNL1       -0.4535
     21 C         138.4606  139.4221  159.9802 C.ar    1  UNL1        0.1454
     22 C         137.9410  140.4825  159.0552 C.ar    1  UNL1        0.0384
     23 C         138.5795  140.6855  157.7131 C.ar    1  UNL1        0.0145
     24 C         139.7375  139.8282  157.2960 C.ar    1  UNL1        0.0579
     25 CL        140.3759  140.0312  155.9540 Cl      1  UNL1       -0.0822
     26 C         140.2571  138.7678  158.2210 C.ar    1  UNL1        0.0145
     27 C         139.6186  138.5647  159.5631 C.ar    1  UNL1        0.0384
@<TRIPOS>UNITY_ATOM_ATTR
18 1
charge -1
@<TRIPOS>BOND
     1    14    13    1
     2    14    12    1
     3    12     7    1
     4     7     8   ar
     5     8     9   ar
     6     9    10   ar
     7    10     1    1
     8     1     2   ar
     9     2     3   ar
    10     3     4   ar
    11     4    20    1
    12    20    21    1
    13    21    22   ar
    14    22    23   ar
    15    23    24   ar
    16    24    25    1
    17    24    26   ar
    18    26    27   ar
    19     4     5   ar
    20     5     6   ar
    21    10    11   ar
    22    14    17    1
    23    17    18   ar
    24    17    19   ar
    25    11     7   ar
    26     6     1   ar
    27    27    21   ar
    28    13    15    1
    29    13    16    1
@<TRIPOS>MOLECULE
*****
 27 29 0 0 0
SMALL
GASTEIGER

@<TRIPOS>ATOM
      1 C         138.3980  139.8387  160.1126 C.ar    1  UNL1        0.0395
      2 C         139.3693  138.6958  160.1194 C.ar    1  UNL1        0.0063
      3 C         139.6544  137.9615  161.3959 C.ar    1  UNL1        0.0376
      4 C         138.9683  138.3701  162.6656 C.ar    1  UNL1        0.1453
      5 C         137.9969  139.5131  162.6588 C.ar    1  UNL1        0.0376
      6 C         137.7118  140.2474  161.3824 C.ar    1  UNL1        0.0063
      7 N         137.0251  141.3333  156.8040 N.ar    1  UNL1       -0.1492
      8 N         138.3229  142.0732  156.9397 N.ar    1  UNL1       -0.0450
      9 N         138.9951  141.6034  158.1956 N.ar    1  UNL1       -0.1077
     10 C         138.1128  140.5731  158.8361 C.ar    1  UNL1        0.2058
     11 N         136.8953  140.4062  157.9760 N.ar    1  UNL1       -0.1296
     12 C         136.0316  141.4925  155.6915 C.3     1  UNL1        0.1723
     13 N         135.4590  139.4568  154.1822 N.3     1  UNL1       -0.3162
     14 CA        135.1191  140.3573  155.3326 C.3     1  UNL1        0.1145
     15 H1        136.3374  139.7597  153.7613 H       1  UNL1        0.1192
     16 H2        134.7154  139.4999  153.4854 H       1  UNL1        0.1192
     17 C         133.8667  140.1227  156.1242 C.2     1  UNL1        0.0664
     18 O         133.7986  138.9863  157.1008 O.co2   1  UNL1       -0.5477
     19 OXT       132.6825  141.0246  155.9392 O.co2   1  UNL1       -0.5477
     20 O         139.2534  137.6358  163.9421 O.3     1  UNL1       -0.4535
     21 C         139.2984  138.3818  165.2426 C.ar    1  UNL1        0.1454
     22 C         140.5152  139.1792  165.6081 C.ar    1  UNL1        0.0384
     23 C         140.5601  139.9253  166.9087 C.ar    1  UNL1        0.0145
     24 C         139.3883  139.8740  167.8437 C.ar    1  UNL1        0.0579
     25 CL        139.4333  140.6200  169.1441 Cl      1  UNL1       -0.0822
     26 C         138.1715  139.0766  167.4781 C.ar    1  UNL1        0.0145
     27 C         138.1266  138.3305  166.1777 C.ar    1  UNL1        0.0384
@<TRIPOS>UNITY_ATOM_ATTR
18 1
charge -1
@<TRIPOS>BOND
     1    14    13    1
     2    14    12    1
     3    12     7    1
     4     7     8   ar
     5     8     9   ar
     6     9    10   ar
     7    10     1    1
     8     1     2   ar
     9     2     3   ar
    10     3     4   ar
    11     4    20    1
    12    20    21    1
    13    21    22   ar
    14    22    23   ar
    15    23    24   ar
    16    24    25    1
    17    24    26   ar
    18    26    27   ar
    19     4     5   ar
    20     5     6   ar
    21    10    11   ar
    22    14    17    1
    23    17    18   ar
    24    17    19   ar
    25    11     7   ar
    26     6     1   ar
    27    27    21   ar
    28    13    15    1
    29    13    16    1
