@<TRIPOS>MOLECULE
*****
 23 25 0 0 0
SMALL
GASTEIGER

@<TRIPOS>ATOM
      1 N         138.1007  140.8150  163.4044 N.ar    1  UNL1       -0.3165
      2 C         137.8929  139.6235  162.5172 C.ar    1  UNL1        0.0779
      3 C         138.7769  138.5173  163.0121 C.ar    1  UNL1        0.0392
      4 C         139.5311  139.0252  164.2051 C.ar    1  UNL1        0.0985
      5 N         140.5444  138.3781  165.1019 N.ar    1  UNL1       -0.2423
      6 C         141.1398  139.1510  166.2413 C.ar    1  UNL1        0.0989
      7 C         140.7219  140.5710  166.4837 C.ar    1  UNL1        0.0207
      8 C         139.7086  141.2182  165.5869 C.ar    1  UNL1        0.0203
      9 C         139.1132  140.4452  164.4475 C.ar    1  UNL1        0.0782
     10 C         141.3173  141.3440  167.6231 C.ar    1  UNL1        0.0039
     11 C         142.6597  140.9587  168.1703 C.ar    1  UNL1        0.0025
     12 C         143.2551  141.7316  169.3097 C.ar    1  UNL1        0.0320
     13 C         142.5081  142.8898  169.9018 C.ar    1  UNL1        0.1674
     14 F         143.1034  143.6627  171.0411 F       1  UNL1       -0.2018
     15 C         141.1656  143.2750  169.3545 C.ar    1  UNL1        0.1674
     16 F         140.4185  144.4332  169.9466 F       1  UNL1       -0.2018
     17 C         140.5702  142.5021  168.2152 C.ar    1  UNL1        0.0320
     18 C         137.4162  142.1431  163.2717 C.3     1  UNL1        0.1920
     19 C         139.2444  145.5301  162.3042 C.3     1  UNL1        0.1150
     20 N         138.6176  144.4421  163.1248 N.am    1  UNL1       -0.2744
     21 C         138.5655  144.5648  164.6188 C.3     1  UNL1        0.1150
     22 C         138.0430  143.2313  162.4512 C.2     1  UNL1        0.2488
     23 O         138.0952  143.1085  160.9571 O.2     1  UNL1       -0.2728
@<TRIPOS>BOND
     1    19    20    1
     2    20    21    1
     3    20    22   am
     4    22    23    2
     5    22    18    1
     6    18     1    1
     7     1     2   ar
     8     2     3   ar
     9     3     4   ar
    10     4     5   ar
    11     5     6   ar
    12     6     7   ar
    13     7    10    1
    14    10    11   ar
    15    11    12   ar
    16    12    13   ar
    17    13    14    1
    18    13    15   ar
    19    15    16    1
    20    15    17   ar
    21     7     8   ar
    22     8     9   ar
    23     9     1   ar
    24     9     4   ar
    25    17    10   ar
@<TRIPOS>MOLECULE
*****
 23 25 0 0 0
SMALL
GASTEIGER

@<TRIPOS>ATOM
      1 N         137.8763  141.2799  162.6294 N.ar    1  UNL1       -0.3165
      2 C         137.5738  140.4212  161.4373 C.ar    1  UNL1        0.0779
      3 C         137.9472  139.0087  161.7768 C.ar    1  UNL1        0.0392
      4 C         138.4805  138.9943  163.1787 C.ar    1  UNL1        0.0985
      5 N         139.0004  137.8844  164.0434 N.ar    1  UNL1       -0.2423
      6 C         139.4764  138.1782  165.4352 C.ar    1  UNL1        0.0989
      7 C         139.4326  139.5819  165.9622 C.ar    1  UNL1        0.0207
      8 C         138.9128  140.6918  165.0974 C.ar    1  UNL1        0.0203
      9 C         138.4367  140.3980  163.7056 C.ar    1  UNL1        0.0782
     10 C         139.9087  139.8757  167.3540 C.ar    1  UNL1        0.0039
     11 C         138.9236  139.9565  168.4822 C.ar    1  UNL1        0.0025
     12 C         139.3997  140.2503  169.8740 C.ar    1  UNL1        0.0320
     13 C         140.8609  140.4633  170.1376 C.ar    1  UNL1        0.1674
     14 F         141.3370  140.7571  171.5293 F       1  UNL1       -0.2018
     15 C         141.8460  140.3825  169.0092 C.ar    1  UNL1        0.1674
     16 F         143.3073  140.5955  169.2727 F       1  UNL1       -0.2018
     17 C         141.3699  140.0887  167.6175 C.ar    1  UNL1        0.0320
     18 C         137.6570  142.7605  162.7280 C.3     1  UNL1        0.1920
     19 C         140.3282  145.6676  162.3236 C.3     1  UNL1        0.1150
     20 N         139.3476  144.7208  162.9497 N.am    1  UNL1       -0.2744
     21 C         139.0769  144.7876  164.4236 C.3     1  UNL1        0.1150
     22 C         138.6377  143.7073  162.1019 C.2     1  UNL1        0.2488
     23 O         138.9083  143.6406  160.6280 O.2     1  UNL1       -0.2728
@<TRIPOS>BOND
     1    19    20    1
     2    20    21    1
     3    20    22   am
     4    22    23    2
     5    22    18    1
     6    18     1    1
     7     1     2   ar
     8     2     3   ar
     9     3     4   ar
    10     4     5   ar
    11     5     6   ar
    12     6     7   ar
    13     7    10    1
    14    10    11   ar
    15    11    12   ar
    16    12    13   ar
    17    13    14    1
    18    13    15   ar
    19    15    16    1
    20    15    17   ar
    21     7     8   ar
    22     8     9   ar
    23     9     1   ar
    24     9     4   ar
    25    17    10   ar
@<TRIPOS>MOLECULE
*****
 23 25 0 0 0
SMALL
GASTEIGER

@<TRIPOS>ATOM
      1 N         141.2953  138.2373  163.6405 N.ar    1  UNL1       -0.3165
      2 C         140.1562  137.4844  163.0194 C.ar    1  UNL1        0.0779
      3 C         138.9456  137.6802  163.8831 C.ar    1  UNL1        0.0392
      4 C         139.3364  138.5540  165.0380 C.ar    1  UNL1        0.0985
      5 N         138.5576  139.0806  166.2067 N.ar    1  UNL1       -0.2423
      6 C         139.2309  139.9516  167.2255 C.ar    1  UNL1        0.0989
      7 C         140.6832  140.2959  167.0755 C.ar    1  UNL1        0.0207
      8 C         141.4620  139.7693  165.9068 C.ar    1  UNL1        0.0203
      9 C         140.7886  138.8983  164.8880 C.ar    1  UNL1        0.0782
     10 C         141.3565  141.1669  168.0944 C.ar    1  UNL1        0.0039
     11 C         142.6985  140.7806  168.6419 C.ar    1  UNL1        0.0025
     12 C         143.3719  141.6516  169.6608 C.ar    1  UNL1        0.0320
     13 C         142.7032  142.9089  170.1321 C.ar    1  UNL1        0.1674
     14 F         143.3765  143.7799  171.1509 F       1  UNL1       -0.2018
     15 C         141.3611  143.2952  169.5845 C.ar    1  UNL1        0.1674
     16 F         140.6924  144.5524  170.0558 F       1  UNL1       -0.2018
     17 C         140.6878  142.4242  168.5657 C.ar    1  UNL1        0.0320
     18 C         142.6953  138.3155  163.1076 C.3     1  UNL1        0.1920
     19 C         144.9280  141.5470  162.5400 C.3     1  UNL1        0.1150
     20 N         144.4168  140.2614  163.1194 N.am    1  UNL1       -0.2744
     21 C         145.1157  139.6359  164.2900 C.3     1  UNL1        0.1150
     22 C         143.2066  139.6012  162.5282 C.2     1  UNL1        0.2488
     23 O         142.5076  140.2267  161.3576 O.2     1  UNL1       -0.2728
@<TRIPOS>BOND
     1    19    20    1
     2    20    21    1
     3    20    22   am
     4    22    23    2
     5    22    18    1
     6    18     1    1
     7     1     2   ar
     8     2     3   ar
     9     3     4   ar
    10     4     5   ar
    11     5     6   ar
    12     6     7   ar
    13     7    10    1
    14    10    11   ar
    15    11    12   ar
    16    12    13   ar
    17    13    14    1
    18    13    15   ar
    19    15    16    1
    20    15    17   ar
    21     7     8   ar
    22     8     9   ar
    23     9     1   ar
    24     9     4   ar
    25    17    10   ar
@<TRIPOS>MOLECULE
*****
 23 25 0 0 0
SMALL
GASTEIGER

@<TRIPOS>ATOM
      1 N         144.2866  140.4356  162.5717 N.ar    1  UNL1       -0.3165
      2 C         144.2755  139.6538  161.2916 C.ar    1  UNL1        0.0779
      3 C         143.3409  138.4935  161.4653 C.ar    1  UNL1        0.0392
      4 C         142.7744  138.5581  162.8527 C.ar    1  UNL1        0.0985
      5 N         141.8019  137.6791  163.5818 N.ar    1  UNL1       -0.2423
      6 C         141.4139  138.0004  164.9946 C.ar    1  UNL1        0.0989
      7 C         141.9984  139.2007  165.6784 C.ar    1  UNL1        0.0207
      8 C         142.9709  140.0797  164.9494 C.ar    1  UNL1        0.0203
      9 C         143.3589  139.7584  163.5366 C.ar    1  UNL1        0.0782
     10 C         141.6104  139.5220  167.0914 C.ar    1  UNL1        0.0039
     11 C         140.2093  139.9570  167.4039 C.ar    1  UNL1        0.0025
     12 C         139.8213  140.2783  168.8168 C.ar    1  UNL1        0.0320
     13 C         140.8344  140.1645  169.9172 C.ar    1  UNL1        0.1674
     14 F         140.4464  140.4857  171.3300 F       1  UNL1       -0.2018
     15 C         142.2355  139.7294  169.6046 C.ar    1  UNL1        0.1674
     16 F         143.2486  139.6156  170.7049 F       1  UNL1       -0.2018
     17 C         142.6235  139.4081  168.1917 C.ar    1  UNL1        0.0320
     18 C         145.0853  141.6766  162.8400 C.3     1  UNL1        0.1920
     19 C         143.5331  145.2226  163.7157 C.3     1  UNL1        0.1150
     20 N         144.1665  143.8730  163.8804 N.am    1  UNL1       -0.2744
     21 C         144.5147  143.3699  165.2499 C.3     1  UNL1        0.1150
     22 C         144.4518  143.0264  162.6754 C.2     1  UNL1        0.2488
     23 O         144.1036  143.5295  161.3059 O.2     1  UNL1       -0.2728
@<TRIPOS>BOND
     1    19    20    1
     2    20    21    1
     3    20    22   am
     4    22    23    2
     5    22    18    1
     6    18     1    1
     7     1     2   ar
     8     2     3   ar
     9     3     4   ar
    10     4     5   ar
    11     5     6   ar
    12     6     7   ar
    13     7    10    1
    14    10    11   ar
    15    11    12   ar
    16    12    13   ar
    17    13    14    1
    18    13    15   ar
    19    15    16    1
    20    15    17   ar
    21     7     8   ar
    22     8     9   ar
    23     9     1   ar
    24     9     4   ar
    25    17    10   ar
@<TRIPOS>MOLECULE
*****
 23 25 0 0 0
SMALL
GASTEIGER

@<TRIPOS>ATOM
      1 N         141.4456  144.0937  161.2630 N.ar    1  UNL1       -0.3165
      2 C         141.0559  145.4963  160.9016 C.ar    1  UNL1        0.0779
      3 C         139.7161  145.7776  161.5145 C.ar    1  UNL1        0.0392
      4 C         139.2777  144.5488  162.2547 C.ar    1  UNL1        0.0985
      5 N         138.0433  144.2432  163.0502 N.ar    1  UNL1       -0.2423
      6 C         137.8779  142.8967  163.6902 C.ar    1  UNL1        0.0989
      7 C         138.9468  141.8560  163.5347 C.ar    1  UNL1        0.0207
      8 C         140.1812  142.1616  162.7393 C.ar    1  UNL1        0.0203
      9 C         140.3466  143.5081  162.0992 C.ar    1  UNL1        0.0782
     10 C         138.7813  140.5095  164.1748 C.ar    1  UNL1        0.0039
     11 C         139.0873  139.2654  163.3946 C.ar    1  UNL1        0.0025
     12 C         138.9218  137.9189  164.0347 C.ar    1  UNL1        0.0320
     13 C         138.4503  137.8165  165.4549 C.ar    1  UNL1        0.1674
     14 F         138.2847  136.4701  166.0950 F       1  UNL1       -0.2018
     15 C         138.1442  139.0606  166.2351 C.ar    1  UNL1        0.1674
     16 F         137.6727  138.9582  167.6554 F       1  UNL1       -0.2018
     17 C         138.3097  140.4071  165.5951 C.ar    1  UNL1        0.0320
     18 C         142.7120  143.3986  160.8590 C.3     1  UNL1        0.1920
     19 C         145.5832  141.8559  163.1232 C.3     1  UNL1        0.1150
     20 N         144.4418  141.9571  162.1553 N.am    1  UNL1       -0.2744
     21 C         143.8885  140.7181  161.5159 C.3     1  UNL1        0.1150
     22 C         143.8535  143.2973  161.8269 C.2     1  UNL1        0.2488
     23 O         144.4068  144.5363  162.4663 O.2     1  UNL1       -0.2728
@<TRIPOS>BOND
     1    19    20    1
     2    20    21    1
     3    20    22   am
     4    22    23    2
     5    22    18    1
     6    18     1    1
     7     1     2   ar
     8     2     3   ar
     9     3     4   ar
    10     4     5   ar
    11     5     6   ar
    12     6     7   ar
    13     7    10    1
    14    10    11   ar
    15    11    12   ar
    16    12    13   ar
    17    13    14    1
    18    13    15   ar
    19    15    16    1
    20    15    17   ar
    21     7     8   ar
    22     8     9   ar
    23     9     1   ar
    24     9     4   ar
    25    17    10   ar
@<TRIPOS>MOLECULE
*****
 23 25 0 0 0
SMALL
GASTEIGER

@<TRIPOS>ATOM
      1 N         141.4501  144.1286  161.7578 N.ar    1  UNL1       -0.3165
      2 C         140.7902  145.2631  161.0315 C.ar    1  UNL1        0.0779
      3 C         139.6974  145.8007  161.9070 C.ar    1  UNL1        0.0392
      4 C         139.6818  144.9986  163.1744 C.ar    1  UNL1        0.0985
      5 N         138.8212  145.0757  164.4005 N.ar    1  UNL1       -0.2423
      6 C         139.0439  144.1193  165.5344 C.ar    1  UNL1        0.0989
      7 C         140.1272  143.0859  165.4422 C.ar    1  UNL1        0.0207
      8 C         140.9878  143.0088  164.2161 C.ar    1  UNL1        0.0203
      9 C         140.7651  143.9652  163.0822 C.ar    1  UNL1        0.0782
     10 C         140.3499  142.1296  166.5762 C.ar    1  UNL1        0.0039
     11 C         139.5999  140.8313  166.6207 C.ar    1  UNL1        0.0025
     12 C         139.8225  139.8750  167.7547 C.ar    1  UNL1        0.0320
     13 C         140.7952  140.2169  168.8441 C.ar    1  UNL1        0.1674
     14 F         141.0179  139.2606  169.9781 F       1  UNL1       -0.2018
     15 C         141.5453  141.5152  168.7996 C.ar    1  UNL1        0.1674
     16 F         142.5179  141.8572  169.8891 F       1  UNL1       -0.2018
     17 C         141.3226  142.4715  167.6657 C.ar    1  UNL1        0.0320
     18 C         142.5942  143.3026  161.2491 C.3     1  UNL1        0.1920
     19 C         145.6835  141.7941  163.2316 C.3     1  UNL1        0.1150
     20 N         144.4108  141.8792  162.4424 N.am    1  UNL1       -0.2744
     21 C         143.6819  140.6261  162.0572 C.3     1  UNL1        0.1150
     22 C         143.8670  143.2175  162.0384 C.2     1  UNL1        0.2488
     23 O         144.5960  144.4706  162.4236 O.2     1  UNL1       -0.2728
@<TRIPOS>BOND
     1    19    20    1
     2    20    21    1
     3    20    22   am
     4    22    23    2
     5    22    18    1
     6    18     1    1
     7     1     2   ar
     8     2     3   ar
     9     3     4   ar
    10     4     5   ar
    11     5     6   ar
    12     6     7   ar
    13     7    10    1
    14    10    11   ar
    15    11    12   ar
    16    12    13   ar
    17    13    14    1
    18    13    15   ar
    19    15    16    1
    20    15    17   ar
    21     7     8   ar
    22     8     9   ar
    23     9     1   ar
    24     9     4   ar
    25    17    10   ar
@<TRIPOS>MOLECULE
*****
 23 25 0 0 0
SMALL
GASTEIGER

@<TRIPOS>ATOM
      1 N         139.1611  143.3433  162.6315 N.ar    1  UNL1       -0.3165
      2 C         138.3159  142.7574  161.5395 C.ar    1  UNL1        0.0779
      3 C         137.7643  141.4517  162.0303 C.ar    1  UNL1        0.0392
      4 C         138.2684  141.2307  163.4257 C.ar    1  UNL1        0.0985
      5 N         138.0530  140.1159  164.4059 N.ar    1  UNL1       -0.2423
      6 C         138.7008  140.1702  165.7576 C.ar    1  UNL1        0.0989
      7 C         139.5641  141.3393  166.1292 C.ar    1  UNL1        0.0207
      8 C         139.7795  142.4540  165.1490 C.ar    1  UNL1        0.0203
      9 C         139.1317  142.3997  163.7972 C.ar    1  UNL1        0.0782
     10 C         140.2119  141.3935  167.4811 C.ar    1  UNL1        0.0039
     11 C         140.5410  142.7185  168.1024 C.ar    1  UNL1        0.0025
     12 C         141.1888  142.7728  169.4543 C.ar    1  UNL1        0.0320
     13 C         141.5075  141.5020  170.1847 C.ar    1  UNL1        0.1674
     14 F         142.1553  141.5562  171.5365 F       1  UNL1       -0.2018
     15 C         141.1784  140.1770  169.5633 C.ar    1  UNL1        0.1674
     16 F         141.4972  138.9062  170.2938 F       1  UNL1       -0.2018
     17 C         140.5306  140.1228  168.2115 C.ar    1  UNL1        0.0320
     18 C         139.9050  144.6443  162.5689 C.3     1  UNL1        0.1920
     19 C         141.2830  145.5934  158.9702 C.3     1  UNL1        0.1150
     20 N         141.1159  144.8875  160.2831 N.am    1  UNL1       -0.2744
     21 C         141.9926  143.7189  160.6232 C.3     1  UNL1        0.1150
     22 C         140.0721  145.3502  161.2558 C.2     1  UNL1        0.2488
     23 O         139.1954  146.5189  160.9157 O.2     1  UNL1       -0.2728
@<TRIPOS>BOND
     1    19    20    1
     2    20    21    1
     3    20    22   am
     4    22    23    2
     5    22    18    1
     6    18     1    1
     7     1     2   ar
     8     2     3   ar
     9     3     4   ar
    10     4     5   ar
    11     5     6   ar
    12     6     7   ar
    13     7    10    1
    14    10    11   ar
    15    11    12   ar
    16    12    13   ar
    17    13    14    1
    18    13    15   ar
    19    15    16    1
    20    15    17   ar
    21     7     8   ar
    22     8     9   ar
    23     9     1   ar
    24     9     4   ar
    25    17    10   ar
@<TRIPOS>MOLECULE
*****
 23 25 0 0 0
SMALL
GASTEIGER

@<TRIPOS>ATOM
      1 N         142.0800  138.4563  162.9409 N.ar    1  UNL1       -0.3165
      2 C         141.3612  137.8818  161.7563 C.ar    1  UNL1        0.0779
      3 C         139.8887  137.9341  162.0375 C.ar    1  UNL1        0.0392
      4 C         139.6975  138.5409  163.3959 C.ar    1  UNL1        0.0985
      5 N         138.4651  138.8412  164.1965 N.ar    1  UNL1       -0.2423
      6 C         138.5871  139.4643  165.5555 C.ar    1  UNL1        0.0989
      7 C         139.9414  139.7871  166.1138 C.ar    1  UNL1        0.0207
      8 C         141.1737  139.4867  165.3132 C.ar    1  UNL1        0.0203
      9 C         141.0518  138.8636  163.9542 C.ar    1  UNL1        0.0782
     10 C         140.0633  140.4102  167.4729 C.ar    1  UNL1        0.0039
     11 C         139.1519  139.9751  168.5819 C.ar    1  UNL1        0.0025
     12 C         139.2738  140.5983  169.9409 C.ar    1  UNL1        0.0320
     13 C         140.3071  141.6565  170.1909 C.ar    1  UNL1        0.1674
     14 F         140.4291  142.2796  171.5498 F       1  UNL1       -0.2018
     15 C         141.2185  142.0915  169.0817 C.ar    1  UNL1        0.1674
     16 F         142.2519  143.1497  169.3316 F       1  UNL1       -0.2018
     17 C         141.0966  141.4684  167.7228 C.ar    1  UNL1        0.0320
     18 C         143.5661  138.5985  163.0866 C.3     1  UNL1        0.1920
     19 C         145.0187  142.1503  162.0741 C.3     1  UNL1        0.1150
     20 N         144.4030  140.7870  161.9638 N.am    1  UNL1       -0.2744
     21 C         144.0084  140.2486  160.6205 C.3     1  UNL1        0.1150
     22 C         144.1819  139.9619  163.1968 C.2     1  UNL1        0.2488
     23 O         144.5765  140.5003  164.5401 O.2     1  UNL1       -0.2728
@<TRIPOS>BOND
     1    19    20    1
     2    20    21    1
     3    20    22   am
     4    22    23    2
     5    22    18    1
     6    18     1    1
     7     1     2   ar
     8     2     3   ar
     9     3     4   ar
    10     4     5   ar
    11     5     6   ar
    12     6     7   ar
    13     7    10    1
    14    10    11   ar
    15    11    12   ar
    16    12    13   ar
    17    13    14    1
    18    13    15   ar
    19    15    16    1
    20    15    17   ar
    21     7     8   ar
    22     8     9   ar
    23     9     1   ar
    24     9     4   ar
    25    17    10   ar
@<TRIPOS>MOLECULE
*****
 23 25 0 0 0
SMALL
GASTEIGER

@<TRIPOS>ATOM
      1 N         138.3293  140.7712  162.7690 N.ar    1  UNL1       -0.3165
      2 C         137.8745  141.6735  161.6605 C.ar    1  UNL1        0.0779
      3 C         138.1148  143.0909  162.0886 C.ar    1  UNL1        0.0392
      4 C         138.7181  143.0645  163.4617 C.ar    1  UNL1        0.0985
      5 N         139.1638  144.1608  164.3834 N.ar    1  UNL1       -0.2423
      6 C         139.7421  143.8233  165.7256 C.ar    1  UNL1        0.0989
      7 C         139.8747  142.3896  166.1461 C.ar    1  UNL1        0.0207
      8 C         139.4290  141.2933  165.2244 C.ar    1  UNL1        0.0203
      9 C         138.8507  141.6308  163.8822 C.ar    1  UNL1        0.0782
     10 C         140.4531  142.0521  167.4884 C.ar    1  UNL1        0.0039
     11 C         140.4443  143.0733  168.5871 C.ar    1  UNL1        0.0025
     12 C         141.0227  142.7358  169.9294 C.ar    1  UNL1        0.0320
     13 C         141.6098  141.3771  170.1729 C.ar    1  UNL1        0.1674
     14 F         142.1882  141.0396  171.5151 F       1  UNL1       -0.2018
     15 C         141.6186  140.3559  169.0742 C.ar    1  UNL1        0.1674
     16 F         142.2057  138.9973  169.3177 F       1  UNL1       -0.2018
     17 C         141.0402  140.6934  167.7320 C.ar    1  UNL1        0.0320
     18 C         138.2728  139.2722  162.7651 C.3     1  UNL1        0.1920
     19 C         141.0948  136.8846  164.2092 C.3     1  UNL1        0.1150
     20 N         139.8291  137.6831  164.1078 N.am    1  UNL1       -0.2744
     21 C         138.8540  137.6912  165.2476 C.3     1  UNL1        0.1150
     22 C         139.5385  138.4736  162.8665 C.2     1  UNL1        0.2488
     23 O         140.5136  138.4655  161.7267 O.2     1  UNL1       -0.2728
@<TRIPOS>BOND
     1    19    20    1
     2    20    21    1
     3    20    22   am
     4    22    23    2
     5    22    18    1
     6    18     1    1
     7     1     2   ar
     8     2     3   ar
     9     3     4   ar
    10     4     5   ar
    11     5     6   ar
    12     6     7   ar
    13     7    10    1
    14    10    11   ar
    15    11    12   ar
    16    12    13   ar
    17    13    14    1
    18    13    15   ar
    19    15    16    1
    20    15    17   ar
    21     7     8   ar
    22     8     9   ar
    23     9     1   ar
    24     9     4   ar
    25    17    10   ar
