@<TRIPOS>MOLECULE
*****
 28 30 0 0 0
SMALL
GASTEIGER

@<TRIPOS>ATOM
      1 C         142.8983  138.3379  162.5527 C.ar    1  UNL1        0.0749
      2 C         144.1331  138.9340  163.1607 C.ar    1  UNL1        0.1097
      3 N         144.2344  139.0934  164.6488 N.ar    1  UNL1       -0.2283
      4 C         143.1009  138.6567  165.5288 C.ar    1  UNL1        0.1345
      5 C         141.8661  138.0606  164.9207 C.ar    1  UNL1        0.0494
      6 C         141.7648  137.9012  163.4326 C.ar    1  UNL1        0.0568
      7 C         142.6957  138.0191  159.5765 C.1     1  UNL1       -0.0091
      8 C         142.7970  138.1785  161.0646 C.1     1  UNL1       -0.0484
      9 N         143.2022  138.8161  167.0168 N.pl3   1  UNL1       -0.2821
     10 H         143.6734  138.1385  167.5535 H       1  UNL1        0.1551
     11 C         142.5857  140.0079  167.6872 C.ar    1  UNL1        0.1527
     12 C         141.6935  140.9285  166.9082 C.ar    1  UNL1        0.1340
     13 N         141.0770  142.1203  167.5785 N.ar    1  UNL1       -0.2290
     14 C         141.3525  142.3916  169.0278 C.ar    1  UNL1        0.1683
     15 C         142.2445  141.4711  169.8068 C.ar    1  UNL1        0.1299
     16 N         142.8612  140.2792  169.1365 N.ar    1  UNL1       -0.2251
     17 C         140.7358  143.5835  169.6982 C.1     1  UNL1        0.1214
     18 N         140.1193  144.7753  170.3685 N.1     1  UNL1       -0.1892
     19 N         140.5299  137.3050  162.8245 N.pl3   1  UNL1       -0.3301
     20 H         140.6010  136.7340  162.0257 H       1  UNL1        0.1469
     21 C         139.1868  137.5787  163.4337 C.3     1  UNL1        0.1185
     22 C         138.5816  138.9474  163.3312 C.3     1  UNL1        0.1503
     23 C         137.8298  139.3444  162.0954 C.3     1  UNL1        0.1003
     24 N         137.2247  140.7131  161.9928 N.3     1  UNL1       -0.2933
     25 C         137.3714  141.6847  163.1261 C.3     1  UNL1        0.1011
     26 C         138.1232  141.2878  164.3619 C.3     1  UNL1        0.1592
     27 O         138.7283  139.9191  164.4644 O.3     1  UNL1       -0.3516
     28 H         136.2240  140.5823  161.8448 H       1  UNL1        0.1234
@<TRIPOS>BOND
     1     7     8    3
     2     8     1    1
     3     1     2   ar
     4     2     3   ar
     5     3     4   ar
     6     4     9    1
     7     9    11    1
     8    11    12   ar
     9    12    13   ar
    10    13    14   ar
    11    14    17    1
    12    17    18    3
    13    14    15   ar
    14    15    16   ar
    15     4     5   ar
    16     5     6   ar
    17     6    19    1
    18    19    21    1
    19    22    21    1
    20    22    23    1
    21    23    24    1
    22    24    25    1
    23    25    26    1
    24    26    27    1
    25     6     1   ar
    26    27    22    1
    27    16    11   ar
    28     9    10    1
    29    19    20    1
    30    24    28    1
@<TRIPOS>MOLECULE
*****
 28 30 0 0 0
SMALL
GASTEIGER

@<TRIPOS>ATOM
      1 C         142.8327  138.4458  162.7494 C.ar    1  UNL1        0.0749
      2 C         141.8958  137.6834  163.6387 C.ar    1  UNL1        0.1097
      3 N         142.0602  137.7434  165.1284 N.ar    1  UNL1       -0.2283
      4 C         143.1616  138.5659  165.7289 C.ar    1  UNL1        0.1345
      5 C         144.0985  139.3283  164.8396 C.ar    1  UNL1        0.0494
      6 C         143.9341  139.2682  163.3498 C.ar    1  UNL1        0.0568
      7 C         142.5038  138.3256  159.7699 C.1     1  UNL1       -0.0091
      8 C         142.6683  138.3857  161.2596 C.1     1  UNL1       -0.0484
      9 N         143.3260  138.6259  167.2186 N.pl3   1  UNL1       -0.2821
     10 H         143.9784  138.0398  167.6659 H       1  UNL1        0.1551
     11 C         142.4964  139.5790  168.0269 C.ar    1  UNL1        0.1527
     12 C         141.2104  140.1130  167.4692 C.ar    1  UNL1        0.1340
     13 N         140.3808  141.0661  168.2775 N.ar    1  UNL1       -0.2290
     14 C         140.8372  141.4852  169.6435 C.ar    1  UNL1        0.1683
     15 C         142.1232  140.9513  170.2013 C.ar    1  UNL1        0.1299
     16 N         142.9528  139.9981  169.3929 N.ar    1  UNL1       -0.2251
     17 C         140.0075  142.4383  170.4519 C.1     1  UNL1        0.1214
     18 N         139.1779  143.3914  171.2601 N.1     1  UNL1       -0.1892
     19 N         144.8711  140.0306  162.4605 N.pl3   1  UNL1       -0.3301
     20 H         145.8045  139.7343  162.3596 H       1  UNL1        0.1469
     21 C         144.3859  141.2445  161.7249 C.3     1  UNL1        0.1185
     22 C         144.1304  142.5209  162.4704 C.3     1  UNL1        0.1503
     23 C         143.5063  143.6889  161.7658 C.3     1  UNL1        0.1003
     24 N         143.2508  144.9652  162.5111 N.3     1  UNL1       -0.2933
     25 C         143.6193  145.0736  163.9611 C.3     1  UNL1        0.1011
     26 C         144.2434  143.9056  164.6657 C.3     1  UNL1        0.1592
     27 O         144.4989  142.6293  163.9203 O.3     1  UNL1       -0.3516
     28 H         142.2493  145.1480  162.4474 H       1  UNL1        0.1234
@<TRIPOS>BOND
     1     7     8    3
     2     8     1    1
     3     1     2   ar
     4     2     3   ar
     5     3     4   ar
     6     4     9    1
     7     9    11    1
     8    11    12   ar
     9    12    13   ar
    10    13    14   ar
    11    14    17    1
    12    17    18    3
    13    14    15   ar
    14    15    16   ar
    15     4     5   ar
    16     5     6   ar
    17     6    19    1
    18    19    21    1
    19    22    21    1
    20    22    23    1
    21    23    24    1
    22    24    25    1
    23    25    26    1
    24    26    27    1
    25     6     1   ar
    26    27    22    1
    27    16    11   ar
    28     9    10    1
    29    19    20    1
    30    24    28    1
@<TRIPOS>MOLECULE
*****
 28 30 0 0 0
SMALL
GASTEIGER

@<TRIPOS>ATOM
      1 C         138.2058  139.7619  162.3749 C.ar    1  UNL1        0.0749
      2 C         138.6296  138.4245  162.9055 C.ar    1  UNL1        0.1097
      3 N         138.7629  138.2123  164.3845 N.ar    1  UNL1       -0.2283
      4 C         138.4723  139.3376  165.3328 C.ar    1  UNL1        0.1345
      5 C         138.0485  140.6750  164.8021 C.ar    1  UNL1        0.0494
      6 C         137.9153  140.8872  163.3232 C.ar    1  UNL1        0.0568
      7 C         137.9393  140.1863  159.4171 C.1     1  UNL1       -0.0091
      8 C         138.0725  139.9741  160.8960 C.1     1  UNL1       -0.0484
      9 N         138.6056  139.1254  166.8117 N.pl3   1  UNL1       -0.2821
     10 H         138.1105  138.3966  167.2510 H       1  UNL1        0.1551
     11 C         139.4931  140.0236  167.6213 C.ar    1  UNL1        0.1527
     12 C         140.5720  140.8181  166.9467 C.ar    1  UNL1        0.1340
     13 N         141.4595  141.7164  167.7563 N.ar    1  UNL1       -0.2290
     14 C         141.2683  141.8201  169.2404 C.ar    1  UNL1        0.1683
     15 C         140.1896  141.0256  169.9150 C.ar    1  UNL1        0.1299
     16 N         139.3019  140.1273  169.1054 N.ar    1  UNL1       -0.2251
     17 C         142.1559  142.7184  170.0500 C.1     1  UNL1        0.1214
     18 N         143.0435  143.6166  170.8595 N.1     1  UNL1       -0.1892
     19 N         137.4914  142.2247  162.7926 N.pl3   1  UNL1       -0.3301
     20 H         137.0278  142.2862  161.9263 H       1  UNL1        0.1469
     21 C         137.7741  143.4685  163.5819 C.3     1  UNL1        0.1185
     22 C         139.1495  144.0671  163.5714 C.3     1  UNL1        0.1503
     23 C         139.4168  145.3187  162.7890 C.3     1  UNL1        0.1003
     24 N         140.7921  145.9173  162.7784 N.3     1  UNL1       -0.2933
     25 C         141.9001  145.2644  163.5502 C.3     1  UNL1        0.1011
     26 C         141.6329  144.0128  164.3326 C.3     1  UNL1        0.1592
     27 O         140.2576  143.4142  164.3432 O.3     1  UNL1       -0.3516
     28 H         140.7024  146.8674  163.1386 H       1  UNL1        0.1234
@<TRIPOS>BOND
     1     7     8    3
     2     8     1    1
     3     1     2   ar
     4     2     3   ar
     5     3     4   ar
     6     4     9    1
     7     9    11    1
     8    11    12   ar
     9    12    13   ar
    10    13    14   ar
    11    14    17    1
    12    17    18    3
    13    14    15   ar
    14    15    16   ar
    15     4     5   ar
    16     5     6   ar
    17     6    19    1
    18    19    21    1
    19    22    21    1
    20    22    23    1
    21    23    24    1
    22    24    25    1
    23    25    26    1
    24    26    27    1
    25     6     1   ar
    26    27    22    1
    27    16    11   ar
    28     9    10    1
    29    19    20    1
    30    24    28    1
@<TRIPOS>MOLECULE
*****
 28 30 0 0 0
SMALL
GASTEIGER

@<TRIPOS>ATOM
      1 C         138.4788  141.6319  161.3515 C.ar    1  UNL1        0.0749
      2 C         138.7887  140.1774  161.5473 C.ar    1  UNL1        0.1097
      3 N         138.5997  139.5451  162.8943 N.ar    1  UNL1       -0.2283
      4 C         138.1008  140.3672  164.0455 C.ar    1  UNL1        0.1345
      5 C         137.7910  141.8217  163.8496 C.ar    1  UNL1        0.0494
      6 C         137.9800  142.4541  162.5026 C.ar    1  UNL1        0.0568
      7 C         138.8568  142.8966  158.6575 C.1     1  UNL1       -0.0091
      8 C         138.6678  142.2643  160.0045 C.1     1  UNL1       -0.0484
      9 N         137.9118  139.7349  165.3925 N.pl3   1  UNL1       -0.2821
     10 H         137.0641  139.2841  165.6100 H       1  UNL1        0.1551
     11 C         139.0144  139.7894  166.4079 C.ar    1  UNL1        0.1527
     12 C         138.6899  139.7308  167.8713 C.ar    1  UNL1        0.1340
     13 N         139.7925  139.7853  168.8868 N.ar    1  UNL1       -0.2290
     14 C         141.2197  139.8984  168.4390 C.ar    1  UNL1        0.1683
     15 C         141.5442  139.9570  166.9757 C.ar    1  UNL1        0.1299
     16 N         140.4416  139.9025  165.9602 N.ar    1  UNL1       -0.2251
     17 C         142.3223  139.9529  169.4546 C.1     1  UNL1        0.1214
     18 N         143.4249  140.0075  170.4701 N.1     1  UNL1       -0.1892
     19 N         137.6701  143.9086  162.3068 N.pl3   1  UNL1       -0.3301
     20 H         136.8742  144.1776  161.7935 H       1  UNL1        0.1469
     21 C         138.5728  144.9533  162.8931 C.3     1  UNL1        0.1185
     22 C         140.0616  144.7922  162.8067 C.3     1  UNL1        0.1503
     23 C         140.7792  145.1243  161.5321 C.3     1  UNL1        0.1003
     24 N         142.2680  144.9633  161.4456 N.3     1  UNL1       -0.2933
     25 C         143.0392  144.4701  162.6339 C.3     1  UNL1        0.1011
     26 C         142.3216  144.1380  163.9086 C.3     1  UNL1        0.1592
     27 O         140.8328  144.2991  163.9950 O.3     1  UNL1       -0.3516
     28 H         142.6497  145.8783  161.2059 H       1  UNL1        0.1234
@<TRIPOS>BOND
     1     7     8    3
     2     8     1    1
     3     1     2   ar
     4     2     3   ar
     5     3     4   ar
     6     4     9    1
     7     9    11    1
     8    11    12   ar
     9    12    13   ar
    10    13    14   ar
    11    14    17    1
    12    17    18    3
    13    14    15   ar
    14    15    16   ar
    15     4     5   ar
    16     5     6   ar
    17     6    19    1
    18    19    21    1
    19    22    21    1
    20    22    23    1
    21    23    24    1
    22    24    25    1
    23    25    26    1
    24    26    27    1
    25     6     1   ar
    26    27    22    1
    27    16    11   ar
    28     9    10    1
    29    19    20    1
    30    24    28    1
@<TRIPOS>MOLECULE
*****
 28 30 0 0 0
SMALL
GASTEIGER

@<TRIPOS>ATOM
      1 C         139.0283  140.7166  165.8799 C.ar    1  UNL1        0.0749
      2 C         140.1259  141.3507  166.6818 C.ar    1  UNL1        0.1097
      3 N         140.8071  142.5871  166.1746 N.ar    1  UNL1       -0.2283
      4 C         140.3906  143.1895  164.8655 C.ar    1  UNL1        0.1345
      5 C         139.2929  142.5554  164.0637 C.ar    1  UNL1        0.0494
      6 C         138.6118  141.3190  164.5709 C.ar    1  UNL1        0.0568
      7 C         137.6660  138.2437  166.8943 C.1     1  UNL1       -0.0091
      8 C         138.3471  139.4802  166.3871 C.1     1  UNL1       -0.0484
      9 N         141.0717  144.4260  164.3584 N.pl3   1  UNL1       -0.2821
     10 H         141.4850  145.0556  164.9924 H       1  UNL1        0.1551
     11 C         141.1232  144.7031  162.8851 C.ar    1  UNL1        0.1527
     12 C         142.2408  144.1439  162.0553 C.ar    1  UNL1        0.1340
     13 N         142.2923  144.4211  160.5821 N.ar    1  UNL1       -0.2290
     14 C         141.2263  145.2575  159.9386 C.ar    1  UNL1        0.1683
     15 C         140.1088  145.8166  160.7682 C.ar    1  UNL1        0.1299
     16 N         140.0572  145.5395  162.2416 N.ar    1  UNL1       -0.2251
     17 C         141.2778  145.5346  158.4652 C.1     1  UNL1        0.1214
     18 N         141.3294  145.8117  156.9920 N.1     1  UNL1       -0.1892
     19 N         137.5140  140.6849  163.7689 N.pl3   1  UNL1       -0.3301
     20 H         136.5854  140.7168  164.0941 H       1  UNL1        0.1469
     21 C         137.8313  140.0021  162.4716 C.3     1  UNL1        0.1185
     22 C         139.1273  139.2643  162.3096 C.3     1  UNL1        0.1503
     23 C         139.3042  137.9128  162.9359 C.3     1  UNL1        0.1003
     24 N         140.6001  137.1750  162.7740 N.3     1  UNL1       -0.2933
     25 C         141.7191  137.7887  161.9858 C.3     1  UNL1        0.1011
     26 C         141.5421  139.1401  161.3595 C.3     1  UNL1        0.1592
     27 O         140.2463  139.8780  161.5215 O.3     1  UNL1       -0.3516
     28 H         140.3785  136.2853  162.3271 H       1  UNL1        0.1234
@<TRIPOS>BOND
     1     7     8    3
     2     8     1    1
     3     1     2   ar
     4     2     3   ar
     5     3     4   ar
     6     4     9    1
     7     9    11    1
     8    11    12   ar
     9    12    13   ar
    10    13    14   ar
    11    14    17    1
    12    17    18    3
    13    14    15   ar
    14    15    16   ar
    15     4     5   ar
    16     5     6   ar
    17     6    19    1
    18    19    21    1
    19    22    21    1
    20    22    23    1
    21    23    24    1
    22    24    25    1
    23    25    26    1
    24    26    27    1
    25     6     1   ar
    26    27    22    1
    27    16    11   ar
    28     9    10    1
    29    19    20    1
    30    24    28    1
@<TRIPOS>MOLECULE
*****
 28 30 0 0 0
SMALL
GASTEIGER

@<TRIPOS>ATOM
      1 C         138.1208  143.0039  163.7605 C.ar    1  UNL1        0.0749
      2 C         137.7733  141.5950  164.1402 C.ar    1  UNL1        0.1097
      3 N         137.6068  140.5509  163.0762 N.ar    1  UNL1       -0.2283
      4 C         137.7878  140.9157  161.6325 C.ar    1  UNL1        0.1345
      5 C         138.1354  142.3246  161.2529 C.ar    1  UNL1        0.0494
      6 C         138.3019  143.3687  162.3169 C.ar    1  UNL1        0.0568
      7 C         138.4538  145.0921  165.8885 C.1     1  UNL1       -0.0091
      8 C         138.2873  144.0480  164.8245 C.1     1  UNL1       -0.0484
      9 N         137.6213  139.8716  160.5685 N.pl3   1  UNL1       -0.2821
     10 H         136.7335  139.4835  160.3944 H       1  UNL1        0.1551
     11 C         138.8075  139.4188  159.7699 C.ar    1  UNL1        0.1527
     12 C         140.0286  138.8993  160.4693 C.ar    1  UNL1        0.1340
     13 N         141.2148  138.4465  159.6707 N.ar    1  UNL1       -0.2290
     14 C         141.1800  138.5132  158.1726 C.ar    1  UNL1        0.1683
     15 C         139.9590  139.0327  157.4731 C.ar    1  UNL1        0.1299
     16 N         138.7727  139.4855  158.2718 N.ar    1  UNL1       -0.2251
     17 C         142.3663  138.0604  157.3739 C.1     1  UNL1        0.1214
     18 N         143.5525  137.6076  156.5753 N.1     1  UNL1       -0.1892
     19 N         138.6495  144.7777  161.9372 N.pl3   1  UNL1       -0.3301
     20 H         138.0536  145.5180  162.1942 H       1  UNL1        0.1469
     21 C         139.9049  145.0586  161.1660 C.3     1  UNL1        0.1185
     22 C         141.2435  144.8463  161.8089 C.3     1  UNL1        0.1503
     23 C         142.3140  144.0895  161.0800 C.3     1  UNL1        0.1003
     24 N         143.6525  143.8771  161.7229 N.3     1  UNL1       -0.2933
     25 C         143.9205  144.4216  163.0946 C.3     1  UNL1        0.1011
     26 C         142.8500  145.1784  163.8235 C.3     1  UNL1        0.1592
     27 O         141.5115  145.3907  163.1806 O.3     1  UNL1       -0.3516
     28 H         144.3469  144.2912  161.1009 H       1  UNL1        0.1234
@<TRIPOS>BOND
     1     7     8    3
     2     8     1    1
     3     1     2   ar
     4     2     3   ar
     5     3     4   ar
     6     4     9    1
     7     9    11    1
     8    11    12   ar
     9    12    13   ar
    10    13    14   ar
    11    14    17    1
    12    17    18    3
    13    14    15   ar
    14    15    16   ar
    15     4     5   ar
    16     5     6   ar
    17     6    19    1
    18    19    21    1
    19    22    21    1
    20    22    23    1
    21    23    24    1
    22    24    25    1
    23    25    26    1
    24    26    27    1
    25     6     1   ar
    26    27    22    1
    27    16    11   ar
    28     9    10    1
    29    19    20    1
    30    24    28    1
@<TRIPOS>MOLECULE
*****
 28 30 0 0 0
SMALL
GASTEIGER

@<TRIPOS>ATOM
      1 C         142.2588  144.0118  161.6045 C.ar    1  UNL1        0.0749
      2 C         143.1075  142.7805  161.7212 C.ar    1  UNL1        0.1097
      3 N         143.5100  142.2725  163.0740 N.ar    1  UNL1       -0.2283
      4 C         143.0638  142.9957  164.3100 C.ar    1  UNL1        0.1345
      5 C         142.2151  144.2270  164.1933 C.ar    1  UNL1        0.0494
      6 C         141.8126  144.7350  162.8406 C.ar    1  UNL1        0.0568
      7 C         141.4537  145.0278  158.8991 C.1     1  UNL1       -0.0091
      8 C         141.8563  144.5198  160.2518 C.1     1  UNL1       -0.0484
      9 N         143.4663  142.4877  165.6627 N.pl3   1  UNL1       -0.2821
     10 H         144.4145  142.4912  165.9278 H       1  UNL1        0.1551
     11 C         142.4243  141.9743  166.6117 C.ar    1  UNL1        0.1527
     12 C         142.5739  142.2050  168.0863 C.ar    1  UNL1        0.1340
     13 N         141.5318  141.6917  169.0353 N.ar    1  UNL1       -0.2290
     14 C         140.3401  140.9477  168.5097 C.ar    1  UNL1        0.1683
     15 C         140.1905  140.7170  167.0351 C.ar    1  UNL1        0.1299
     16 N         141.2326  141.2303  166.0861 N.ar    1  UNL1       -0.2251
     17 C         139.2980  140.4343  169.4587 C.1     1  UNL1        0.1214
     18 N         138.2560  139.9210  170.4076 N.1     1  UNL1       -0.1892
     19 N         140.9639  145.9663  162.7239 N.pl3   1  UNL1       -0.3301
     20 H         141.3747  146.8571  162.8072 H       1  UNL1        0.1469
     21 C         139.4892  145.8404  162.4804 C.3     1  UNL1        0.1185
     22 C         138.8000  144.5284  162.7122 C.3     1  UNL1        0.1503
     23 C         138.3069  144.1722  164.0833 C.3     1  UNL1        0.1003
     24 N         137.6178  142.8602  164.3151 N.3     1  UNL1       -0.2933
     25 C         137.4218  141.9044  163.1759 C.3     1  UNL1        0.1011
     26 C         137.9149  142.2606  161.8048 C.3     1  UNL1        0.1592
     27 O         138.6040  143.5726  161.5729 O.3     1  UNL1       -0.3516
     28 H         136.6906  143.0754  164.6818 H       1  UNL1        0.1234
@<TRIPOS>BOND
     1     7     8    3
     2     8     1    1
     3     1     2   ar
     4     2     3   ar
     5     3     4   ar
     6     4     9    1
     7     9    11    1
     8    11    12   ar
     9    12    13   ar
    10    13    14   ar
    11    14    17    1
    12    17    18    3
    13    14    15   ar
    14    15    16   ar
    15     4     5   ar
    16     5     6   ar
    17     6    19    1
    18    19    21    1
    19    22    21    1
    20    22    23    1
    21    23    24    1
    22    24    25    1
    23    25    26    1
    24    26    27    1
    25     6     1   ar
    26    27    22    1
    27    16    11   ar
    28     9    10    1
    29    19    20    1
    30    24    28    1
@<TRIPOS>MOLECULE
*****
 28 30 0 0 0
SMALL
GASTEIGER

@<TRIPOS>ATOM
      1 C         139.1231  140.6361  165.6422 C.ar    1  UNL1        0.0749
      2 C         138.3312  141.6876  164.9230 C.ar    1  UNL1        0.1097
      3 N         139.0241  142.8901  164.3541 N.ar    1  UNL1       -0.2283
      4 C         140.5089  143.0412  164.5043 C.ar    1  UNL1        0.1345
      5 C         141.3007  141.9897  165.2235 C.ar    1  UNL1        0.0494
      6 C         140.6078  140.7872  165.7925 C.ar    1  UNL1        0.0568
      7 C         137.7372  138.2310  166.7802 C.1     1  UNL1       -0.0091
      8 C         138.4302  139.4335  166.2112 C.1     1  UNL1       -0.0484
      9 N         141.2018  144.2438  163.9353 N.pl3   1  UNL1       -0.2821
     10 H         141.8012  144.7807  164.5024 H       1  UNL1        0.1551
     11 C         140.9815  144.6282  162.5023 C.ar    1  UNL1        0.1527
     12 C         139.9217  145.6291  162.1486 C.ar    1  UNL1        0.1340
     13 N         139.7013  146.0135  160.7156 N.ar    1  UNL1       -0.2290
     14 C         140.5408  145.3971  159.6361 C.ar    1  UNL1        0.1683
     15 C         141.6006  144.3962  159.9897 C.ar    1  UNL1        0.1299
     16 N         141.8210  144.0117  161.4228 N.ar    1  UNL1       -0.2251
     17 C         140.3204  145.7816  158.2030 C.1     1  UNL1        0.1214
     18 N         140.1000  146.1660  156.7700 N.1     1  UNL1       -0.1892
     19 N         141.3998  139.7356  166.5117 N.pl3   1  UNL1       -0.3301
     20 H         141.5835  138.8728  166.0746 H       1  UNL1        0.1469
     21 C         141.9118  139.9988  167.8968 C.3     1  UNL1        0.1185
     22 C         141.1939  140.9662  168.7906 C.3     1  UNL1        0.1503
     23 C         139.9661  140.5308  169.5343 C.3     1  UNL1        0.1003
     24 N         139.2482  141.4981  170.4281 N.3     1  UNL1       -0.2933
     25 C         139.7581  142.9008  170.5783 C.3     1  UNL1        0.1011
     26 C         140.9859  143.3361  169.8346 C.3     1  UNL1        0.1592
     27 O         141.7038  142.3688  168.9408 O.3     1  UNL1       -0.3516
     28 H         139.2400  141.0864  171.3613 H       1  UNL1        0.1234
@<TRIPOS>BOND
     1     7     8    3
     2     8     1    1
     3     1     2   ar
     4     2     3   ar
     5     3     4   ar
     6     4     9    1
     7     9    11    1
     8    11    12   ar
     9    12    13   ar
    10    13    14   ar
    11    14    17    1
    12    17    18    3
    13    14    15   ar
    14    15    16   ar
    15     4     5   ar
    16     5     6   ar
    17     6    19    1
    18    19    21    1
    19    22    21    1
    20    22    23    1
    21    23    24    1
    22    24    25    1
    23    25    26    1
    24    26    27    1
    25     6     1   ar
    26    27    22    1
    27    16    11   ar
    28     9    10    1
    29    19    20    1
    30    24    28    1
@<TRIPOS>MOLECULE
*****
 28 30 0 0 0
SMALL
GASTEIGER

@<TRIPOS>ATOM
      1 C         141.3658  142.1356  168.7241 C.ar    1  UNL1        0.0749
      2 C         142.3326  141.2345  169.4335 C.ar    1  UNL1        0.1097
      3 N         142.9327  140.0632  168.7137 N.ar    1  UNL1       -0.2283
      4 C         142.5660  139.7931  167.2846 C.ar    1  UNL1        0.1345
      5 C         141.5993  140.6941  166.5752 C.ar    1  UNL1        0.0494
      6 C         140.9992  141.8654  167.2949 C.ar    1  UNL1        0.0568
      7 C         140.1656  144.4781  170.1635 C.1     1  UNL1       -0.0091
      8 C         140.7657  143.3068  169.4438 C.1     1  UNL1       -0.0484
      9 N         143.1661  138.6218  166.5648 N.pl3   1  UNL1       -0.2821
     10 H         143.5488  137.8729  167.0767 H       1  UNL1        0.1551
     11 C         143.1832  138.5915  165.0653 C.ar    1  UNL1        0.1527
     12 C         144.3130  139.2322  164.3149 C.ar    1  UNL1        0.1340
     13 N         144.3301  139.2019  162.8154 N.ar    1  UNL1       -0.2290
     14 C         143.2173  138.5309  162.0661 C.ar    1  UNL1        0.1683
     15 C         142.0875  137.8902  162.8163 C.ar    1  UNL1        0.1299
     16 N         142.0704  137.9205  164.3160 N.ar    1  UNL1       -0.2251
     17 C         143.2344  138.5007  160.5664 C.1     1  UNL1        0.1214
     18 N         143.2514  138.4704  159.0668 N.1     1  UNL1       -0.1892
     19 N         140.0323  142.7665  166.5854 N.pl3   1  UNL1       -0.3301
     20 H         139.3392  143.2443  167.0959 H       1  UNL1        0.1469
     21 C         140.1215  142.9397  165.0982 C.3     1  UNL1        0.1185
     22 C         139.2771  142.0931  164.1925 C.3     1  UNL1        0.1503
     23 C         137.7963  142.3209  164.1180 C.3     1  UNL1        0.1003
     24 N         136.9519  141.4743  163.2124 N.3     1  UNL1       -0.2933
     25 C         137.5882  140.4000  162.3812 C.3     1  UNL1        0.1011
     26 C         139.0689  140.1722  162.4557 C.3     1  UNL1        0.1592
     27 O         139.9134  141.0188  163.3613 O.3     1  UNL1       -0.3516
     28 H         136.4857  142.1101  162.5652 H       1  UNL1        0.1234
@<TRIPOS>BOND
     1     7     8    3
     2     8     1    1
     3     1     2   ar
     4     2     3   ar
     5     3     4   ar
     6     4     9    1
     7     9    11    1
     8    11    12   ar
     9    12    13   ar
    10    13    14   ar
    11    14    17    1
    12    17    18    3
    13    14    15   ar
    14    15    16   ar
    15     4     5   ar
    16     5     6   ar
    17     6    19    1
    18    19    21    1
    19    22    21    1
    20    22    23    1
    21    23    24    1
    22    24    25    1
    23    25    26    1
    24    26    27    1
    25     6     1   ar
    26    27    22    1
    27    16    11   ar
    28     9    10    1
    29    19    20    1
    30    24    28    1
