@<TRIPOS>MOLECULE
*****
 25 27 0 0 0
SMALL
GASTEIGER

@<TRIPOS>ATOM
      1 O         140.9882  140.9423  163.7215 O.2     1  UNL1       -0.2699
      2 C         141.1973  140.1020  164.9463 C.2     1  UNL1        0.2490
      3 N         142.5599  140.0054  165.5659 N.am    1  UNL1       -0.2763
      4 C         140.0437  139.3583  165.5515 C.ar    1  UNL1        0.0575
      5 C         139.2950  139.9491  166.7093 C.ar    1  UNL1        0.0045
      6 C         138.1414  139.2055  167.3144 C.ar    1  UNL1        0.0001
      7 C         137.7366  137.8711  166.7618 C.ar    1  UNL1       -0.0001
      8 C         138.4853  137.2803  165.6040 C.ar    1  UNL1        0.0040
      9 C         139.6388  138.0239  164.9989 C.ar    1  UNL1        0.0758
     10 C         140.3875  137.4331  163.8411 C.3     1  UNL1        0.4187
     11 F         141.1362  136.8424  162.6833 F       1  UNL1       -0.1659
     12 F         141.3380  136.7707  164.7938 F       1  UNL1       -0.1659
     13 F         139.4370  138.0956  162.8884 F       1  UNL1       -0.1659
     14 C         143.7135  140.7491  164.9608 C.3     1  UNL1        0.0927
     15 C         143.9562  142.2264  165.0534 C.3     1  UNL1        0.0383
     16 C         145.2196  142.5364  164.3066 C.3     1  UNL1        0.0704
     17 N         145.7577  141.2505  163.7523 N.3     1  UNL1       -0.2960
     18 C         144.8268  140.1459  164.1566 C.3     1  UNL1        0.0887
     19 H         146.6889  141.0739  164.1294 H       1  UNL1        0.1233
     20 C         142.7689  139.1651  166.7908 C.3     1  UNL1        0.0936
     21 C         142.6915  139.7909  168.1518 C.3     1  UNL1        0.0199
     22 C         142.7161  141.2610  168.4489 C.3     1  UNL1        0.0017
     23 C         142.6157  141.4352  169.9354 C.3     1  UNL1        0.0001
     24 C         142.5291  140.0728  170.5570 C.3     1  UNL1        0.0001
     25 C         142.5760  139.0566  169.4546 C.3     1  UNL1        0.0017
@<TRIPOS>BOND
     1     1     2    2
     2     2     4    1
     3     4     5   ar
     4     5     6   ar
     5     6     7   ar
     6     7     8   ar
     7     8     9   ar
     8     9    10    1
     9    10    11    1
    10    10    12    1
    11    10    13    1
    12     2     3   am
    13     3    20    1
    14    20    21    1
    15    21    22    1
    16    22    23    1
    17    23    24    1
    18    24    25    1
    19    14     3    1
    20    14    15    1
    21    15    16    1
    22    16    17    1
    23    17    18    1
    24     9     4   ar
    25    25    21    1
    26    18    14    1
    27    17    19    1
@<TRIPOS>MOLECULE
*****
 25 27 0 0 0
SMALL
GASTEIGER

@<TRIPOS>ATOM
      1 O         143.9926  137.9847  167.1596 O.2     1  UNL1       -0.2699
      2 C         143.0267  138.8412  166.3957 C.2     1  UNL1        0.2490
      3 N         142.3874  140.0251  167.0587 N.am    1  UNL1       -0.2763
      4 C         142.7003  138.5139  164.9687 C.ar    1  UNL1        0.0575
      5 C         141.5794  137.5681  164.6537 C.ar    1  UNL1        0.0045
      6 C         141.2529  137.2407  163.2268 C.ar    1  UNL1        0.0001
      7 C         142.0473  137.8591  162.1148 C.ar    1  UNL1       -0.0001
      8 C         143.1682  138.8048  162.4298 C.ar    1  UNL1        0.0040
      9 C         143.4947  139.1322  163.8567 C.ar    1  UNL1        0.0758
     10 C         144.6156  140.0779  164.1716 C.3     1  UNL1        0.4187
     11 F         145.7365  141.0237  164.4866 F       1  UNL1       -0.1659
     12 F         145.5335  138.9138  164.4003 F       1  UNL1       -0.1659
     13 F         143.6976  141.2420  163.9430 F       1  UNL1       -0.1659
     14 C         142.7139  140.3525  168.4858 C.3     1  UNL1        0.0927
     15 C         142.5008  139.4536  169.6675 C.3     1  UNL1        0.0383
     16 C         142.9660  140.1818  170.8936 C.3     1  UNL1        0.0704
     17 N         143.4665  141.5308  170.4696 N.3     1  UNL1       -0.2960
     18 C         143.3107  141.6363  168.9814 C.3     1  UNL1        0.0887
     19 H         144.4496  141.6305  170.7227 H       1  UNL1        0.1233
     20 C         141.4216  140.8816  166.2948 C.3     1  UNL1        0.0936
     21 C         140.0628  140.3510  165.9451 C.3     1  UNL1        0.0199
     22 C         139.1871  139.5167  166.8322 C.3     1  UNL1        0.0017
     23 C         137.9242  139.2115  166.0822 C.3     1  UNL1        0.0001
     24 C         138.0196  139.8574  164.7317 C.3     1  UNL1        0.0001
     25 C         139.3413  140.5616  164.6470 C.3     1  UNL1        0.0017
@<TRIPOS>BOND
     1     1     2    2
     2     2     4    1
     3     4     5   ar
     4     5     6   ar
     5     6     7   ar
     6     7     8   ar
     7     8     9   ar
     8     9    10    1
     9    10    11    1
    10    10    12    1
    11    10    13    1
    12     2     3   am
    13     3    20    1
    14    20    21    1
    15    21    22    1
    16    22    23    1
    17    23    24    1
    18    24    25    1
    19    14     3    1
    20    14    15    1
    21    15    16    1
    22    16    17    1
    23    17    18    1
    24     9     4   ar
    25    25    21    1
    26    18    14    1
    27    17    19    1
@<TRIPOS>MOLECULE
*****
 25 27 0 0 0
SMALL
GASTEIGER

@<TRIPOS>ATOM
      1 O         144.4910  142.0268  165.1118 O.2     1  UNL1       -0.2699
      2 C         143.1976  142.1570  165.8602 C.2     1  UNL1        0.2490
      3 N         142.0530  142.9134  165.2537 N.am    1  UNL1       -0.2763
      4 C         143.0487  141.5308  167.2152 C.ar    1  UNL1        0.0575
      5 C         143.3315  142.3361  168.4487 C.ar    1  UNL1        0.0045
      6 C         143.1827  141.7100  169.8036 C.ar    1  UNL1        0.0001
      7 C         142.7511  140.2786  169.9249 C.ar    1  UNL1       -0.0001
      8 C         142.4684  139.4733  168.6914 C.ar    1  UNL1        0.0040
      9 C         142.6172  140.0994  167.3365 C.ar    1  UNL1        0.0758
     10 C         142.3344  139.2941  166.1030 C.3     1  UNL1        0.4187
     11 F         142.0517  138.4888  164.8695 F       1  UNL1       -0.1659
     12 F         140.8949  139.7120  166.1602 F       1  UNL1       -0.1659
     13 F         143.7739  138.8763  166.0458 F       1  UNL1       -0.1659
     14 C         142.2019  143.5396  163.8988 C.3     1  UNL1        0.0927
     15 C         142.0023  142.8497  162.5819 C.3     1  UNL1        0.0383
     16 C         142.2535  143.8493  161.4921 C.3     1  UNL1        0.0704
     17 N         142.6083  145.1571  162.1355 N.3     1  UNL1       -0.2960
     18 C         142.5763  144.9657  163.6230 C.3     1  UNL1        0.0887
     19 H         141.9324  145.8711  161.8638 H       1  UNL1        0.1233
     20 C         140.7596  143.0436  166.0021 C.3     1  UNL1        0.0936
     21 C         139.4670  143.1632  165.2505 C.3     1  UNL1        0.0199
     22 C         138.7161  142.0375  164.6032 C.3     1  UNL1        0.0017
     23 C         137.4833  142.6082  163.9668 C.3     1  UNL1        0.0001
     24 C         137.4724  144.0865  164.2209 C.3     1  UNL1        0.0001
     25 C         138.6984  144.4295  165.0143 C.3     1  UNL1        0.0017
@<TRIPOS>BOND
     1     1     2    2
     2     2     4    1
     3     4     5   ar
     4     5     6   ar
     5     6     7   ar
     6     7     8   ar
     7     8     9   ar
     8     9    10    1
     9    10    11    1
    10    10    12    1
    11    10    13    1
    12     2     3   am
    13     3    20    1
    14    20    21    1
    15    21    22    1
    16    22    23    1
    17    23    24    1
    18    24    25    1
    19    14     3    1
    20    14    15    1
    21    15    16    1
    22    16    17    1
    23    17    18    1
    24     9     4   ar
    25    25    21    1
    26    18    14    1
    27    17    19    1
@<TRIPOS>MOLECULE
*****
 25 27 0 0 0
SMALL
GASTEIGER

@<TRIPOS>ATOM
      1 O         143.0715  139.2873  166.2636 O.2     1  UNL1       -0.2699
      2 C         141.8849  139.7696  165.4829 C.2     1  UNL1        0.2490
      3 N         142.0772  140.7117  164.3316 N.am    1  UNL1       -0.2763
      4 C         140.5060  139.3099  165.8536 C.ar    1  UNL1        0.0575
      5 C         139.7765  139.9659  166.9883 C.ar    1  UNL1        0.0045
      6 C         138.3977  139.5062  167.3590 C.ar    1  UNL1        0.0001
      7 C         137.7484  138.3905  166.5951 C.ar    1  UNL1       -0.0001
      8 C         138.4780  137.7345  165.4605 C.ar    1  UNL1        0.0040
      9 C         139.8568  138.1942  165.0897 C.ar    1  UNL1        0.0758
     10 C         140.5863  137.5382  163.9551 C.3     1  UNL1        0.4187
     11 F         141.3159  136.8821  162.8205 F       1  UNL1       -0.1659
     12 F         139.7728  138.3296  162.9744 F       1  UNL1       -0.1659
     13 F         141.3999  136.7467  164.9358 F       1  UNL1       -0.1659
     14 C         143.4561  141.1714  163.9609 C.3     1  UNL1        0.0927
     15 C         144.2309  142.2661  164.6328 C.3     1  UNL1        0.0383
     16 C         145.5559  142.3884  163.9404 C.3     1  UNL1        0.0704
     17 N         145.6000  141.3693  162.8405 N.3     1  UNL1       -0.2960
     18 C         144.3022  140.6171  162.8533 C.3     1  UNL1        0.0887
     19 H         146.3751  140.7249  162.9966 H       1  UNL1        0.1233
     20 C         140.8907  141.1940  163.5510 C.3     1  UNL1        0.0936
     21 C         140.0233  142.2863  164.1031 C.3     1  UNL1        0.0199
     22 C         138.5279  142.2527  164.2155 C.3     1  UNL1        0.0017
     23 C         138.0794  143.5495  164.8216 C.3     1  UNL1        0.0001
     24 C         139.2977  144.3845  165.0836 C.3     1  UNL1        0.0001
     25 C         140.4991  143.6037  164.6396 C.3     1  UNL1        0.0017
@<TRIPOS>BOND
     1     1     2    2
     2     2     4    1
     3     4     5   ar
     4     5     6   ar
     5     6     7   ar
     6     7     8   ar
     7     8     9   ar
     8     9    10    1
     9    10    11    1
    10    10    12    1
    11    10    13    1
    12     2     3   am
    13     3    20    1
    14    20    21    1
    15    21    22    1
    16    22    23    1
    17    23    24    1
    18    24    25    1
    19    14     3    1
    20    14    15    1
    21    15    16    1
    22    16    17    1
    23    17    18    1
    24     9     4   ar
    25    25    21    1
    26    18    14    1
    27    17    19    1
@<TRIPOS>MOLECULE
*****
 25 27 0 0 0
SMALL
GASTEIGER

@<TRIPOS>ATOM
      1 O         143.0810  139.2610  166.4472 O.2     1  UNL1       -0.2699
      2 C         141.8921  139.7137  165.6524 C.2     1  UNL1        0.2490
      3 N         142.0858  140.5610  164.4299 N.am    1  UNL1       -0.2763
      4 C         140.5096  139.3192  166.0802 C.ar    1  UNL1        0.0575
      5 C         139.7349  138.3145  165.2799 C.ar    1  UNL1        0.0045
      6 C         138.3524  137.9200  165.7076 C.ar    1  UNL1        0.0001
      7 C         137.7446  138.5301  166.9357 C.ar    1  UNL1       -0.0001
      8 C         138.5193  139.5347  167.7361 C.ar    1  UNL1        0.0040
      9 C         139.9017  139.9293  167.3083 C.ar    1  UNL1        0.0758
     10 C         140.6764  140.9339  168.1087 C.3     1  UNL1        0.4187
     11 F         141.4511  141.9386  168.9090 F       1  UNL1       -0.1659
     12 F         141.2792  139.8243  168.9182 F       1  UNL1       -0.1659
     13 F         140.0736  142.0436  167.2992 F       1  UNL1       -0.1659
     14 C         143.4683  140.9556  164.0021 C.3     1  UNL1        0.0927
     15 C         144.2896  142.0654  164.5883 C.3     1  UNL1        0.0383
     16 C         145.6011  142.1053  163.8615 C.3     1  UNL1        0.0704
     17 N         145.5904  141.0200  162.8260 N.3     1  UNL1       -0.2960
     18 C         144.2722  140.3094  162.9129 C.3     1  UNL1        0.0887
     19 H         146.3501  140.3633  163.0049 H       1  UNL1        0.1233
     20 C         140.8969  141.0138  163.6351 C.3     1  UNL1        0.0936
     21 C         140.0952  142.1962  164.0925 C.3     1  UNL1        0.0199
     22 C         138.6132  142.2206  164.3232 C.3     1  UNL1        0.0017
     23 C         138.2368  143.6013  164.7727 C.3     1  UNL1        0.0001
     24 C         139.4861  144.4302  164.8198 C.3     1  UNL1        0.0001
     25 C         140.6347  143.5618  164.3994 C.3     1  UNL1        0.0017
@<TRIPOS>BOND
     1     1     2    2
     2     2     4    1
     3     4     5   ar
     4     5     6   ar
     5     6     7   ar
     6     7     8   ar
     7     8     9   ar
     8     9    10    1
     9    10    11    1
    10    10    12    1
    11    10    13    1
    12     2     3   am
    13     3    20    1
    14    20    21    1
    15    21    22    1
    16    22    23    1
    17    23    24    1
    18    24    25    1
    19    14     3    1
    20    14    15    1
    21    15    16    1
    22    16    17    1
    23    17    18    1
    24     9     4   ar
    25    25    21    1
    26    18    14    1
    27    17    19    1
@<TRIPOS>MOLECULE
*****
 25 27 0 0 0
SMALL
GASTEIGER

@<TRIPOS>ATOM
      1 O         139.1866  139.5225  167.4738 O.2     1  UNL1       -0.2699
      2 C         139.8296  140.1056  166.2505 C.2     1  UNL1        0.2490
      3 N         141.1944  140.7212  166.3416 N.am    1  UNL1       -0.2763
      4 C         139.1077  140.0731  164.9360 C.ar    1  UNL1        0.0575
      5 C         138.2147  141.2122  164.5423 C.ar    1  UNL1        0.0045
      6 C         137.4928  141.1797  163.2279 C.ar    1  UNL1        0.0001
      7 C         137.6640  140.0081  162.3071 C.ar    1  UNL1       -0.0001
      8 C         138.5570  138.8690  162.7007 C.ar    1  UNL1        0.0040
      9 C         139.2789  138.9015  164.0151 C.ar    1  UNL1        0.0758
     10 C         140.1719  137.7624  164.4087 C.3     1  UNL1        0.4187
     11 F         141.0649  136.6232  164.8023 F       1  UNL1       -0.1659
     12 F         141.2662  138.3236  163.5500 F       1  UNL1       -0.1659
     13 F         139.0775  137.2012  165.2675 F       1  UNL1       -0.1659
     14 C         141.9162  140.7537  167.6562 C.3     1  UNL1        0.0927
     15 C         142.1821  141.9746  168.4861 C.3     1  UNL1        0.0383
     16 C         142.9291  141.5465  169.7144 C.3     1  UNL1        0.0704
     17 N         143.1249  140.0609  169.6436 N.3     1  UNL1       -0.2960
     18 C         142.4989  139.5710  168.3715 C.3     1  UNL1        0.0887
     19 H         142.6774  139.6143  170.4440 H       1  UNL1        0.1233
     20 C         141.8374  141.3043  165.1183 C.3     1  UNL1        0.0936
     21 C         143.2316  140.9011  164.7394 C.3     1  UNL1        0.0199
     22 C         144.3106  141.8179  164.2441 C.3     1  UNL1        0.0017
     23 C         145.5375  140.9938  163.9878 C.3     1  UNL1        0.0001
     24 C         145.2167  139.5677  164.3247 C.3     1  UNL1        0.0001
     25 C         143.7916  139.5105  164.7892 C.3     1  UNL1        0.0017
@<TRIPOS>BOND
     1     1     2    2
     2     2     4    1
     3     4     5   ar
     4     5     6   ar
     5     6     7   ar
     6     7     8   ar
     7     8     9   ar
     8     9    10    1
     9    10    11    1
    10    10    12    1
    11    10    13    1
    12     2     3   am
    13     3    20    1
    14    20    21    1
    15    21    22    1
    16    22    23    1
    17    23    24    1
    18    24    25    1
    19    14     3    1
    20    14    15    1
    21    15    16    1
    22    16    17    1
    23    17    18    1
    24     9     4   ar
    25    25    21    1
    26    18    14    1
    27    17    19    1
@<TRIPOS>MOLECULE
*****
 25 27 0 0 0
SMALL
GASTEIGER

@<TRIPOS>ATOM
      1 O         142.3329  139.1834  166.8950 O.2     1  UNL1       -0.2699
      2 C         142.0347  140.1900  165.8237 C.2     1  UNL1        0.2490
      3 N         140.6665  140.2515  165.2121 N.am    1  UNL1       -0.2763
      4 C         143.1050  141.1352  165.3639 C.ar    1  UNL1        0.0575
      5 C         143.2776  142.4609  166.0441 C.ar    1  UNL1        0.0045
      6 C         144.3477  143.4061  165.5844 C.ar    1  UNL1        0.0001
      7 C         145.2452  143.0256  164.4444 C.ar    1  UNL1       -0.0001
      8 C         145.0726  141.6999  163.7642 C.ar    1  UNL1        0.0040
      9 C         144.0025  140.7547  164.2239 C.ar    1  UNL1        0.0758
     10 C         143.8299  139.4290  163.5437 C.3     1  UNL1        0.4187
     11 F         143.6573  138.1033  162.8634 F       1  UNL1       -0.1659
     12 F         142.9287  140.0673  162.5286 F       1  UNL1       -0.1659
     13 F         144.7311  138.7908  164.5588 F       1  UNL1       -0.1659
     14 C         139.5963  139.3063  165.6719 C.3     1  UNL1        0.0927
     15 C         138.6166  139.5554  166.7801 C.3     1  UNL1        0.0383
     16 C         137.7328  138.3491  166.8973 C.3     1  UNL1        0.0704
     17 N         138.1662  137.3545  165.8614 N.3     1  UNL1       -0.2960
     18 C         139.3179  137.9462  165.1040 C.3     1  UNL1        0.0887
     19 H         137.3946  137.1614  165.2228 H       1  UNL1        0.1233
     20 C         140.3683  141.2582  164.1408 C.3     1  UNL1        0.0936
     21 C         139.5635  142.4820  164.4646 C.3     1  UNL1        0.0199
     22 C         138.0793  142.6288  164.3046 C.3     1  UNL1        0.0017
     23 C         137.7001  144.0113  164.7463 C.3     1  UNL1        0.0001
     24 C         138.9500  144.7188  165.1793 C.3     1  UNL1        0.0001
     25 C         140.1016  143.7736  165.0051 C.3     1  UNL1        0.0017
@<TRIPOS>BOND
     1     1     2    2
     2     2     4    1
     3     4     5   ar
     4     5     6   ar
     5     6     7   ar
     6     7     8   ar
     7     8     9   ar
     8     9    10    1
     9    10    11    1
    10    10    12    1
    11    10    13    1
    12     2     3   am
    13     3    20    1
    14    20    21    1
    15    21    22    1
    16    22    23    1
    17    23    24    1
    18    24    25    1
    19    14     3    1
    20    14    15    1
    21    15    16    1
    22    16    17    1
    23    17    18    1
    24     9     4   ar
    25    25    21    1
    26    18    14    1
    27    17    19    1
@<TRIPOS>MOLECULE
*****
 25 27 0 0 0
SMALL
GASTEIGER

@<TRIPOS>ATOM
      1 O         143.4863  138.0851  167.5096 O.2     1  UNL1       -0.2699
      2 C         142.9634  139.1838  166.6325 C.2     1  UNL1        0.2490
      3 N         142.1897  140.3195  167.2338 N.am    1  UNL1       -0.2763
      4 C         143.2142  139.1468  165.1540 C.ar    1  UNL1        0.0575
      5 C         144.4812  139.7217  164.5937 C.ar    1  UNL1        0.0045
      6 C         144.7321  139.6848  163.1153 C.ar    1  UNL1        0.0001
      7 C         143.7158  139.0729  162.1973 C.ar    1  UNL1       -0.0001
      8 C         142.4488  138.4980  162.7576 C.ar    1  UNL1        0.0040
      9 C         142.1979  138.5349  164.2360 C.ar    1  UNL1        0.0758
     10 C         140.9309  137.9600  164.7964 C.3     1  UNL1        0.4187
     11 F         139.6638  137.3851  165.3568 F       1  UNL1       -0.1659
     12 F         141.6083  136.6325  164.9661 F       1  UNL1       -0.1659
     13 F         140.2534  139.2875  164.6266 F       1  UNL1       -0.1659
     14 C         141.9388  140.3565  168.7123 C.3     1  UNL1        0.0927
     15 C         142.8820  140.8817  169.7537 C.3     1  UNL1        0.0383
     16 C         142.2269  140.7245  171.0939 C.3     1  UNL1        0.0704
     17 N         140.8788  140.1022  170.8808 N.3     1  UNL1       -0.2960
     18 C         140.7008  139.8747  169.4088 C.3     1  UNL1        0.0887
     19 H         140.1504  140.7278  171.2249 H       1  UNL1        0.1233
     20 C         141.6667  141.4182  166.3567 C.3     1  UNL1        0.0936
     21 C         142.6213  142.3614  165.6864 C.3     1  UNL1        0.0199
     22 C         143.8707  142.9293  166.2919 C.3     1  UNL1        0.0017
     23 C         144.5157  143.8212  165.2728 C.3     1  UNL1        0.0001
     24 C         143.6649  143.8044  164.0374 C.3     1  UNL1        0.0001
     25 C         142.4941  142.9023  164.2931 C.3     1  UNL1        0.0017
@<TRIPOS>BOND
     1     1     2    2
     2     2     4    1
     3     4     5   ar
     4     5     6   ar
     5     6     7   ar
     6     7     8   ar
     7     8     9   ar
     8     9    10    1
     9    10    11    1
    10    10    12    1
    11    10    13    1
    12     2     3   am
    13     3    20    1
    14    20    21    1
    15    21    22    1
    16    22    23    1
    17    23    24    1
    18    24    25    1
    19    14     3    1
    20    14    15    1
    21    15    16    1
    22    16    17    1
    23    17    18    1
    24     9     4   ar
    25    25    21    1
    26    18    14    1
    27    17    19    1
@<TRIPOS>MOLECULE
*****
 25 27 0 0 0
SMALL
GASTEIGER

@<TRIPOS>ATOM
      1 O         137.1823  141.8069  162.6326 O.2     1  UNL1       -0.2699
      2 C         138.4361  141.3895  163.3422 C.2     1  UNL1        0.2490
      3 N         139.6516  142.2673  163.2963 N.am    1  UNL1       -0.2763
      4 C         138.4745  140.0941  164.0977 C.ar    1  UNL1        0.0575
      5 C         138.1131  140.0639  165.5533 C.ar    1  UNL1        0.0045
      6 C         138.1515  138.7687  166.3088 C.ar    1  UNL1        0.0001
      7 C         138.5512  137.5037  165.6088 C.ar    1  UNL1       -0.0001
      8 C         138.9126  137.5339  164.1533 C.ar    1  UNL1        0.0040
      9 C         138.8742  138.8292  163.3978 C.ar    1  UNL1        0.0758
     10 C         139.2356  138.8594  161.9423 C.3     1  UNL1        0.4187
     11 F         139.5969  138.8897  160.4868 F       1  UNL1       -0.1659
     12 F         137.7907  138.6835  161.5799 F       1  UNL1       -0.1659
     13 F         140.6805  139.0354  162.3046 F       1  UNL1       -0.1659
     14 C         139.6132  143.5626  162.5408 C.3     1  UNL1        0.0927
     15 C         139.5556  144.9343  163.1450 C.3     1  UNL1        0.0383
     16 C         139.5325  145.9330  162.0260 C.3     1  UNL1        0.0704
     17 N         139.5758  145.1785  160.7303 N.3     1  UNL1       -0.2960
     18 C         139.6257  143.7134  161.0485 C.3     1  UNL1        0.0887
     19 H         140.4058  145.4463  160.2014 H       1  UNL1        0.1233
     20 C         140.9054  141.8498  164.0060 C.3     1  UNL1        0.0936
     21 C         140.9860  141.9387  165.5012 C.3     1  UNL1        0.0199
     22 C         140.3078  142.9636  166.3613 C.3     1  UNL1        0.0017
     23 C         140.6615  142.6767  167.7905 C.3     1  UNL1        0.0001
     24 C         141.5583  141.4745  167.8137 C.3     1  UNL1        0.0001
     25 C         141.7589  141.0184  166.3988 C.3     1  UNL1        0.0017
@<TRIPOS>BOND
     1     1     2    2
     2     2     4    1
     3     4     5   ar
     4     5     6   ar
     5     6     7   ar
     6     7     8   ar
     7     8     9   ar
     8     9    10    1
     9    10    11    1
    10    10    12    1
    11    10    13    1
    12     2     3   am
    13     3    20    1
    14    20    21    1
    15    21    22    1
    16    22    23    1
    17    23    24    1
    18    24    25    1
    19    14     3    1
    20    14    15    1
    21    15    16    1
    22    16    17    1
    23    17    18    1
    24     9     4   ar
    25    25    21    1
    26    18    14    1
    27    17    19    1
