@<TRIPOS>MOLECULE
*****
 35 38 0 0 0
SMALL
GASTEIGER

@<TRIPOS>ATOM
      1 C         139.1294  141.7423  163.6163 C.ar    1  UNL1        0.0154
      2 C         137.8286  142.3009  163.1203 C.ar    1  UNL1        0.0985
      3 N         137.7145  142.7964  161.7092 N.ar    1  UNL1       -0.2423
      4 C         138.9013  142.7335  160.7939 C.ar    1  UNL1        0.0985
      5 C         140.2021  142.1749  161.2899 C.ar    1  UNL1        0.0152
      6 C         140.3161  141.6793  162.7011 C.ar    1  UNL1       -0.0188
      7 C         141.6169  141.1207  163.1970 C.3     1  UNL1        0.0311
      8 C         140.2326  141.4743  167.4191 C.ar    1  UNL1        0.1754
      9 C         140.1185  141.9698  166.0079 C.ar    1  UNL1        0.0403
     10 C         139.2434  141.2467  165.0275 C.ar    1  UNL1        0.0074
     11 C         138.4822  140.0281  165.4583 C.ar    1  UNL1        0.0403
     12 C         138.5963  139.5326  166.8694 C.ar    1  UNL1        0.1754
     13 C         139.4714  140.2557  167.8498 C.ar    1  UNL1        0.2061
     14 C         140.5151  143.2235  169.3192 C.3     1  UNL1        0.2526
     15 O         141.1077  142.1974  168.3995 O.3     1  UNL1       -0.4683
     16 O         137.8351  138.3139  167.3002 O.3     1  UNL1       -0.4683
     17 C         137.8283  137.0890  166.4345 C.3     1  UNL1        0.2526
     18 O         139.5854  139.7601  169.2611 O.3     1  UNL1       -0.4654
     19 C         138.5594  140.1573  170.2806 C.3     1  UNL1        0.2528
     20 C         141.3889  142.1119  160.3747 C.ar    1  UNL1        0.0013
     21 C         141.6219  140.8934  159.5315 C.ar    1  UNL1        0.0013
     22 C         142.8087  140.8303  158.6163 C.ar    1  UNL1        0.0145
     23 C         143.7624  141.9858  158.5442 C.ar    1  UNL1        0.0479
     24 C         143.5293  143.2044  159.3874 C.ar    1  UNL1        0.0145
     25 C         142.3426  143.2674  160.3026 C.ar    1  UNL1        0.0013
     26 N         144.9491  141.9228  157.6290 N.pl3   1  UNL1       -0.3045
     27 C         144.9569  140.9635  156.4760 C.3     1  UNL1        0.1099
     28 C         146.1437  140.9004  155.5608 C.3     1  UNL1        0.1168
     29 N         147.3227  141.7968  155.7986 N.3     1  UNL1       -0.1559
     30 C         147.3148  142.7562  156.9517 C.3     1  UNL1        0.1168
     31 C         146.1281  142.8192  157.8669 C.3     1  UNL1        0.1099
     32 S         148.5094  141.7338  154.8834 S.O2    1  UNL1        0.0458
     33 C         149.6962  141.6708  153.9681 C.3     1  UNL1        0.1960
     34 O         149.4255  141.7352  156.0711 O.2     1  UNL1       -0.1572
     35 O         147.5934  141.7324  153.6956 O.2     1  UNL1       -0.1572
@<TRIPOS>BOND
     1    14    15    1
     2    15     8    1
     3     8     9   ar
     4     9    10   ar
     5    10     1    1
     6     1     2   ar
     7     2     3   ar
     8     3     4   ar
     9     4     5   ar
    10     5    20    1
    11    20    21   ar
    12    21    22   ar
    13    22    23   ar
    14    23    26    1
    15    26    27    1
    16    27    28    1
    17    28    29    1
    18    29    32    1
    19    32    33    1
    20    32    34    2
    21    32    35    2
    22    29    30    1
    23    30    31    1
    24    23    24   ar
    25    24    25   ar
    26     5     6   ar
    27     6     7    1
    28    10    11   ar
    29    11    12   ar
    30    12    16    1
    31    16    17    1
    32    12    13   ar
    33    13    18    1
    34    18    19    1
    35    13     8   ar
    36     6     1   ar
    37    25    20   ar
    38    31    26    1
@<TRIPOS>MOLECULE
*****
 35 38 0 0 0
SMALL
GASTEIGER

@<TRIPOS>ATOM
      1 C         139.1536  141.7944  163.7951 C.ar    1  UNL1        0.0154
      2 C         137.8303  142.2983  163.3001 C.ar    1  UNL1        0.0985
      3 N         137.6813  142.7386  161.8740 N.ar    1  UNL1       -0.2423
      4 C         138.8556  142.6752  160.9428 C.ar    1  UNL1        0.0985
      5 C         140.1789  142.1713  161.4378 C.ar    1  UNL1        0.0152
      6 C         140.3279  141.7310  162.8640 C.ar    1  UNL1       -0.0188
      7 C         141.6512  141.2271  163.3590 C.3     1  UNL1        0.0311
      8 C         138.7388  139.6859  167.1316 C.ar    1  UNL1        0.1754
      9 C         138.5898  140.1263  165.7055 C.ar    1  UNL1        0.0403
     10 C         139.3026  141.3541  165.2213 C.ar    1  UNL1        0.0074
     11 C         140.1644  142.1415  166.1633 C.ar    1  UNL1        0.0403
     12 C         140.3133  141.7011  167.5894 C.ar    1  UNL1        0.1754
     13 C         139.6005  140.4733  168.0735 C.ar    1  UNL1        0.2061
     14 C         137.6441  137.3806  166.6447 C.3     1  UNL1        0.2526
     15 O         138.0260  138.4581  167.6158 O.3     1  UNL1       -0.4683
     16 O         141.1752  142.4886  168.5314 O.3     1  UNL1       -0.4683
     17 C         140.5483  143.4594  169.4876 C.3     1  UNL1        0.2526
     18 O         139.7495  140.0330  169.4997 O.3     1  UNL1       -0.4654
     19 C         141.0913  139.6056  170.0164 C.3     1  UNL1        0.2528
     20 C         141.3532  142.1078  160.5067 C.ar    1  UNL1        0.0013
     21 C         141.7062  140.8156  159.8319 C.ar    1  UNL1        0.0013
     22 C         142.8805  140.7521  158.9008 C.ar    1  UNL1        0.0145
     23 C         143.7018  141.9808  158.6444 C.ar    1  UNL1        0.0479
     24 C         143.3487  143.2731  159.3193 C.ar    1  UNL1        0.0145
     25 C         142.1744  143.3366  160.2504 C.ar    1  UNL1        0.0013
     26 N         144.8760  141.9174  157.7133 N.pl3   1  UNL1       -0.3045
     27 C         144.8763  140.9442  156.5719 C.3     1  UNL1        0.1099
     28 C         146.0506  140.8807  155.6407 C.3     1  UNL1        0.1168
     29 N         147.2246  141.7904  155.8510 N.3     1  UNL1       -0.1559
     30 C         147.2243  142.7636  156.9925 C.3     1  UNL1        0.1168
     31 C         146.0500  142.8270  157.9236 C.3     1  UNL1        0.1099
     32 S         148.3989  141.7269  154.9199 S.O2    1  UNL1        0.0458
     33 C         149.5732  141.6634  153.9888 C.3     1  UNL1        0.1960
     34 O         147.4656  141.6579  153.7476 O.2     1  UNL1       -0.1572
     35 O         149.3321  141.7959  156.0922 O.2     1  UNL1       -0.1572
@<TRIPOS>BOND
     1    14    15    1
     2    15     8    1
     3     8     9   ar
     4     9    10   ar
     5    10     1    1
     6     1     2   ar
     7     2     3   ar
     8     3     4   ar
     9     4     5   ar
    10     5    20    1
    11    20    21   ar
    12    21    22   ar
    13    22    23   ar
    14    23    26    1
    15    26    27    1
    16    27    28    1
    17    28    29    1
    18    29    32    1
    19    32    33    1
    20    32    34    2
    21    32    35    2
    22    29    30    1
    23    30    31    1
    24    23    24   ar
    25    24    25   ar
    26     5     6   ar
    27     6     7    1
    28    10    11   ar
    29    11    12   ar
    30    12    16    1
    31    16    17    1
    32    12    13   ar
    33    13    18    1
    34    18    19    1
    35    13     8   ar
    36     6     1   ar
    37    25    20   ar
    38    31    26    1
@<TRIPOS>MOLECULE
*****
 35 38 0 0 0
SMALL
GASTEIGER

@<TRIPOS>ATOM
      1 C         141.3247  141.5859  164.4689 C.ar    1  UNL1        0.0154
      2 C         141.4461  143.0611  164.2259 C.ar    1  UNL1        0.0985
      3 N         141.6013  143.5805  162.8273 N.ar    1  UNL1       -0.2423
      4 C         141.6352  142.6247  161.6717 C.ar    1  UNL1        0.0985
      5 C         141.5138  141.1495  161.9147 C.ar    1  UNL1        0.0152
      6 C         141.3586  140.6301  163.3134 C.ar    1  UNL1       -0.0188
      7 C         141.2373  139.1549  163.5564 C.3     1  UNL1        0.0311
      8 C         139.7243  139.9102  167.6908 C.ar    1  UNL1        0.1754
      9 C         139.8795  140.4296  166.2923 C.ar    1  UNL1        0.0403
     10 C         141.1695  141.0665  165.8676 C.ar    1  UNL1        0.0074
     11 C         142.3042  141.1839  166.8415 C.ar    1  UNL1        0.0403
     12 C         142.1490  140.6645  168.2401 C.ar    1  UNL1        0.1754
     13 C         140.8590  140.0277  168.6648 C.ar    1  UNL1        0.2061
     14 C         137.6066  138.5183  167.1181 C.3     1  UNL1        0.2526
     15 O         138.4343  139.2734  168.1155 O.3     1  UNL1       -0.4683
     16 O         143.2838  140.7820  169.2141 O.3     1  UNL1       -0.4683
     17 C         143.6453  142.1204  169.7866 C.3     1  UNL1        0.2526
     18 O         140.7038  139.5082  170.0634 O.3     1  UNL1       -0.4654
     19 C         140.4904  140.4645  171.1992 C.3     1  UNL1        0.2528
     20 C         141.5477  140.1937  160.7592 C.ar    1  UNL1        0.0013
     21 C         140.2717  139.7909  160.0815 C.ar    1  UNL1        0.0013
     22 C         140.3055  138.8351  158.9259 C.ar    1  UNL1        0.0145
     23 C         141.6154  138.2822  158.4480 C.ar    1  UNL1        0.0479
     24 C         142.8915  138.6850  159.1258 C.ar    1  UNL1        0.0145
     25 C         142.8577  139.6408  160.2814 C.ar    1  UNL1        0.0013
     26 N         141.6493  137.3264  157.2925 N.pl3   1  UNL1       -0.3045
     27 C         142.8635  136.4780  157.0564 C.3     1  UNL1        0.1099
     28 C         142.8974  135.5221  155.9008 C.3     1  UNL1        0.1168
     29 N         141.7171  135.4148  154.9814 N.3     1  UNL1       -0.1559
     30 C         140.5028  136.2633  155.2176 C.3     1  UNL1        0.1168
     31 C         140.4690  137.2191  156.3731 C.3     1  UNL1        0.1099
     32 S         141.7510  134.4590  153.8259 S.O2    1  UNL1        0.0458
     33 C         141.7849  133.5032  152.6702 C.3     1  UNL1        0.1960
     34 O         141.5144  133.3143  154.7658 O.2     1  UNL1       -0.1572
     35 O         141.9876  135.6038  152.8859 O.2     1  UNL1       -0.1572
@<TRIPOS>BOND
     1    14    15    1
     2    15     8    1
     3     8     9   ar
     4     9    10   ar
     5    10     1    1
     6     1     2   ar
     7     2     3   ar
     8     3     4   ar
     9     4     5   ar
    10     5    20    1
    11    20    21   ar
    12    21    22   ar
    13    22    23   ar
    14    23    26    1
    15    26    27    1
    16    27    28    1
    17    28    29    1
    18    29    32    1
    19    32    33    1
    20    32    34    2
    21    32    35    2
    22    29    30    1
    23    30    31    1
    24    23    24   ar
    25    24    25   ar
    26     5     6   ar
    27     6     7    1
    28    10    11   ar
    29    11    12   ar
    30    12    16    1
    31    16    17    1
    32    12    13   ar
    33    13    18    1
    34    18    19    1
    35    13     8   ar
    36     6     1   ar
    37    25    20   ar
    38    31    26    1
@<TRIPOS>MOLECULE
*****
 35 38 0 0 0
SMALL
GASTEIGER

@<TRIPOS>ATOM
      1 C         141.3229  141.5572  164.3991 C.ar    1  UNL1        0.0154
      2 C         141.4466  143.0315  164.1515 C.ar    1  UNL1        0.0985
      3 N         141.6068  143.5461  162.7517 N.ar    1  UNL1       -0.2423
      4 C         141.6434  142.5864  161.5994 C.ar    1  UNL1        0.0985
      5 C         141.5198  141.1122  161.8469 C.ar    1  UNL1        0.0152
      6 C         141.3595  140.5976  163.2468 C.ar    1  UNL1       -0.0188
      7 C         141.2359  139.1233  163.4944 C.3     1  UNL1        0.0311
      8 C         142.1357  140.6440  168.1747 C.ar    1  UNL1        0.1754
      9 C         142.2959  141.1585  166.7749 C.ar    1  UNL1        0.0403
     10 C         141.1627  141.0426  165.7990 C.ar    1  UNL1        0.0074
     11 C         139.8694  140.4122  166.2228 C.ar    1  UNL1        0.0403
     12 C         139.7092  139.8977  167.6226 C.ar    1  UNL1        0.1754
     13 C         140.8424  140.0136  168.5986 C.ar    1  UNL1        0.2061
     14 C         143.6259  142.0965  169.7302 C.3     1  UNL1        0.2526
     15 O         143.2689  140.7599  169.1507 O.3     1  UNL1       -0.4683
     16 O         138.4158  139.2672  168.0466 O.3     1  UNL1       -0.4683
     17 C         137.6108  138.4721  167.0619 C.3     1  UNL1        0.2526
     18 O         140.6821  139.4990  169.9985 O.3     1  UNL1       -0.4654
     19 C         140.3967  140.4531  171.1202 C.3     1  UNL1        0.2528
     20 C         141.5563  140.1525  160.6947 C.ar    1  UNL1        0.0013
     21 C         142.8688  139.6099  160.2120 C.ar    1  UNL1        0.0013
     22 C         142.9054  138.6502  159.0597 C.ar    1  UNL1        0.0145
     23 C         141.6296  138.2332  158.3902 C.ar    1  UNL1        0.0479
     24 C         140.3171  138.7758  158.8730 C.ar    1  UNL1        0.0145
     25 C         140.2805  139.7355  160.0252 C.ar    1  UNL1        0.0013
     26 N         141.6661  137.2735  157.2380 N.pl3   1  UNL1       -0.3045
     27 C         140.4874  137.1620  156.3171 C.3     1  UNL1        0.1099
     28 C         140.5239  136.2023  155.1648 C.3     1  UNL1        0.1168
     29 N         141.7393  135.3542  154.9334 N.3     1  UNL1       -0.1559
     30 C         142.9181  135.4657  155.8544 C.3     1  UNL1        0.1168
     31 C         142.8815  136.4253  157.0066 C.3     1  UNL1        0.1099
     32 S         141.7759  134.3945  153.7812 S.O2    1  UNL1        0.0458
     33 C         141.8124  133.4348  152.6289 C.3     1  UNL1        0.1960
     34 O         142.9161  133.6638  154.4260 O.2     1  UNL1       -0.1572
     35 O         140.6356  135.1253  153.1364 O.2     1  UNL1       -0.1572
@<TRIPOS>BOND
     1    14    15    1
     2    15     8    1
     3     8     9   ar
     4     9    10   ar
     5    10     1    1
     6     1     2   ar
     7     2     3   ar
     8     3     4   ar
     9     4     5   ar
    10     5    20    1
    11    20    21   ar
    12    21    22   ar
    13    22    23   ar
    14    23    26    1
    15    26    27    1
    16    27    28    1
    17    28    29    1
    18    29    32    1
    19    32    33    1
    20    32    34    2
    21    32    35    2
    22    29    30    1
    23    30    31    1
    24    23    24   ar
    25    24    25   ar
    26     5     6   ar
    27     6     7    1
    28    10    11   ar
    29    11    12   ar
    30    12    16    1
    31    16    17    1
    32    12    13   ar
    33    13    18    1
    34    18    19    1
    35    13     8   ar
    36     6     1   ar
    37    25    20   ar
    38    31    26    1
@<TRIPOS>MOLECULE
*****
 35 38 0 0 0
SMALL
GASTEIGER

@<TRIPOS>ATOM
      1 C         139.3656  139.1922  165.6378 C.ar    1  UNL1        0.0154
      2 C         138.9387  137.7859  165.3379 C.ar    1  UNL1        0.0985
      3 N         138.6274  137.3812  163.9275 N.ar    1  UNL1       -0.2423
      4 C         138.7431  138.3829  162.8169 C.ar    1  UNL1        0.0985
      5 C         139.1699  139.7892  163.1168 C.ar    1  UNL1        0.0152
      6 C         139.4812  140.1939  164.5273 C.ar    1  UNL1       -0.0188
      7 C         139.9081  141.6002  164.8272 C.3     1  UNL1        0.0311
      8 C         141.3892  140.3789  168.8388 C.ar    1  UNL1        0.1754
      9 C         141.0779  139.9743  167.4284 C.ar    1  UNL1        0.0403
     10 C         139.6768  139.5969  167.0483 C.ar    1  UNL1        0.0074
     11 C         138.5870  139.6242  168.0786 C.ar    1  UNL1        0.0403
     12 C         138.8983  140.0289  169.4890 C.ar    1  UNL1        0.1754
     13 C         140.2994  140.4062  169.8691 C.ar    1  UNL1        0.2061
     14 C         143.3320  142.1038  168.8440 C.3     1  UNL1        0.2526
     15 O         142.7903  140.7563  169.2190 O.3     1  UNL1       -0.4683
     16 O         137.8085  140.0562  170.5193 O.3     1  UNL1       -0.4683
     17 C         136.8826  138.8848  170.6630 C.3     1  UNL1        0.2526
     18 O         140.6107  140.8109  171.2796 O.3     1  UNL1       -0.4654
     19 C         140.8813  142.2500  171.6046 C.3     1  UNL1        0.2528
     20 C         139.2856  140.7909  162.0063 C.ar    1  UNL1        0.0013
     21 C         140.5424  140.8648  161.1909 C.ar    1  UNL1        0.0013
     22 C         140.6581  141.8665  160.0803 C.ar    1  UNL1        0.0145
     23 C         139.5169  142.7942  159.7852 C.ar    1  UNL1        0.0479
     24 C         138.2600  142.7202  160.6007 C.ar    1  UNL1        0.0145
     25 C         138.1444  141.7186  161.7112 C.ar    1  UNL1        0.0013
     26 N         139.6325  143.7959  158.6747 N.pl3   1  UNL1       -0.3045
     27 C         139.1371  143.4532  157.3010 C.3     1  UNL1        0.1099
     28 C         139.2527  144.4548  156.1904 C.3     1  UNL1        0.1168
     29 N         139.8637  145.7992  156.4536 N.3     1  UNL1       -0.1559
     30 C         140.3592  146.1419  157.8274 C.3     1  UNL1        0.1168
     31 C         140.2436  145.1403  158.9379 C.3     1  UNL1        0.1099
     32 S         139.9794  146.8009  155.3431 S.O2    1  UNL1        0.0458
     33 C         140.0950  147.8026  154.2326 C.3     1  UNL1        0.1960
     34 O         140.9656  145.9125  154.6445 O.2     1  UNL1       -0.1572
     35 O         138.9931  147.6892  156.0417 O.2     1  UNL1       -0.1572
@<TRIPOS>BOND
     1    14    15    1
     2    15     8    1
     3     8     9   ar
     4     9    10   ar
     5    10     1    1
     6     1     2   ar
     7     2     3   ar
     8     3     4   ar
     9     4     5   ar
    10     5    20    1
    11    20    21   ar
    12    21    22   ar
    13    22    23   ar
    14    23    26    1
    15    26    27    1
    16    27    28    1
    17    28    29    1
    18    29    32    1
    19    32    33    1
    20    32    34    2
    21    32    35    2
    22    29    30    1
    23    30    31    1
    24    23    24   ar
    25    24    25   ar
    26     5     6   ar
    27     6     7    1
    28    10    11   ar
    29    11    12   ar
    30    12    16    1
    31    16    17    1
    32    12    13   ar
    33    13    18    1
    34    18    19    1
    35    13     8   ar
    36     6     1   ar
    37    25    20   ar
    38    31    26    1
@<TRIPOS>MOLECULE
*****
 35 38 0 0 0
SMALL
GASTEIGER

@<TRIPOS>ATOM
      1 C         139.4431  139.2156  165.6212 C.ar    1  UNL1        0.0154
      2 C         139.0409  137.7994  165.3333 C.ar    1  UNL1        0.0985
      3 N         138.7493  137.3742  163.9247 N.ar    1  UNL1       -0.2423
      4 C         138.8598  138.3650  162.8040 C.ar    1  UNL1        0.0985
      5 C         139.2620  139.7812  163.0918 C.ar    1  UNL1        0.0152
      6 C         139.5536  140.2064  164.5005 C.ar    1  UNL1       -0.0188
      7 C         139.9558  141.6225  164.7883 C.3     1  UNL1        0.0311
      8 C         138.9151  140.1464  169.4428 C.ar    1  UNL1        0.1754
      9 C         138.6236  139.7212  168.0342 C.ar    1  UNL1        0.0403
     10 C         139.7347  139.6408  167.0298 C.ar    1  UNL1        0.0074
     11 C         141.1374  139.9857  167.4339 C.ar    1  UNL1        0.0403
     12 C         141.4290  140.4110  168.8425 C.ar    1  UNL1        0.1754
     13 C         140.3179  140.4913  169.8469 C.ar    1  UNL1        0.2061
     14 C         136.9914  139.0069  170.7659 C.3     1  UNL1        0.2526
     15 O         137.8040  140.2267  170.4472 O.3     1  UNL1       -0.4683
     16 O         142.8318  140.7559  169.2467 O.3     1  UNL1       -0.4683
     17 C         143.3928  142.1099  168.9275 C.3     1  UNL1        0.2526
     18 O         140.6095  140.9165  171.2556 O.3     1  UNL1       -0.4654
     19 C         140.8492  142.3640  171.5676 C.3     1  UNL1        0.2528
     20 C         139.3725  140.7720  161.9712 C.ar    1  UNL1        0.0013
     21 C         140.6936  140.9984  161.2978 C.ar    1  UNL1        0.0013
     22 C         140.8042  141.9893  160.1771 C.ar    1  UNL1        0.0145
     23 C         139.5936  142.7537  159.7297 C.ar    1  UNL1        0.0479
     24 C         138.2725  142.5273  160.4031 C.ar    1  UNL1        0.0145
     25 C         138.1620  141.5365  161.5238 C.ar    1  UNL1        0.0013
     26 N         139.7042  143.7446  158.6091 N.pl3   1  UNL1       -0.3045
     27 C         140.5281  144.9857  158.7839 C.3     1  UNL1        0.1099
     28 C         140.6387  145.9767  157.6632 C.3     1  UNL1        0.1168
     29 N         139.9253  145.7263  156.3677 N.3     1  UNL1       -0.1559
     30 C         139.1013  144.4851  156.1929 C.3     1  UNL1        0.1168
     31 C         138.9908  143.4943  157.3135 C.3     1  UNL1        0.1099
     32 S         140.0358  146.7172  155.2470 S.O2    1  UNL1        0.0458
     33 C         140.1463  147.7081  154.1263 C.3     1  UNL1        0.1960
     34 O         141.3623  146.1329  154.8613 O.2     1  UNL1       -0.1572
     35 O         138.7092  147.3015  155.6327 O.2     1  UNL1       -0.1572
@<TRIPOS>BOND
     1    14    15    1
     2    15     8    1
     3     8     9   ar
     4     9    10   ar
     5    10     1    1
     6     1     2   ar
     7     2     3   ar
     8     3     4   ar
     9     4     5   ar
    10     5    20    1
    11    20    21   ar
    12    21    22   ar
    13    22    23   ar
    14    23    26    1
    15    26    27    1
    16    27    28    1
    17    28    29    1
    18    29    32    1
    19    32    33    1
    20    32    34    2
    21    32    35    2
    22    29    30    1
    23    30    31    1
    24    23    24   ar
    25    24    25   ar
    26     5     6   ar
    27     6     7    1
    28    10    11   ar
    29    11    12   ar
    30    12    16    1
    31    16    17    1
    32    12    13   ar
    33    13    18    1
    34    18    19    1
    35    13     8   ar
    36     6     1   ar
    37    25    20   ar
    38    31    26    1
@<TRIPOS>MOLECULE
*****
 35 38 0 0 0
SMALL
GASTEIGER

@<TRIPOS>ATOM
      1 C         140.5715  143.0382  164.9066 C.ar    1  UNL1        0.0154
      2 C         139.6271  144.2031  164.8776 C.ar    1  UNL1        0.0985
      3 N         139.5683  145.0911  163.6701 N.ar    1  UNL1       -0.2423
      4 C         140.4540  144.8141  162.4916 C.ar    1  UNL1        0.0985
      5 C         141.3984  143.6491  162.5206 C.ar    1  UNL1        0.0152
      6 C         141.4572  142.7612  163.7281 C.ar    1  UNL1       -0.0188
      7 C         142.4017  141.5962  163.7571 C.3     1  UNL1        0.0311
      8 C         139.6379  140.2132  167.5330 C.ar    1  UNL1        0.1754
      9 C         139.5792  141.1012  166.3255 C.ar    1  UNL1        0.0403
     10 C         140.6303  142.1502  166.1142 C.ar    1  UNL1        0.0074
     11 C         141.7402  142.3113  167.1103 C.ar    1  UNL1        0.0403
     12 C         141.7989  141.4233  168.3177 C.ar    1  UNL1        0.1754
     13 C         140.7478  140.3743  168.5291 C.ar    1  UNL1        0.2061
     14 C         137.9704  138.4718  166.5652 C.3     1  UNL1        0.2526
     15 O         138.5868  139.1642  167.7444 O.3     1  UNL1       -0.4683
     16 O         142.9088  141.5844  169.3139 O.3     1  UNL1       -0.4683
     17 C         142.9069  142.7510  170.2567 C.3     1  UNL1        0.2526
     18 O         140.8066  139.4863  169.7367 O.3     1  UNL1       -0.4654
     19 C         140.0901  139.8816  170.9938 C.3     1  UNL1        0.2528
     20 C         142.2841  143.3721  161.3421 C.ar    1  UNL1        0.0013
     21 C         143.7497  143.1272  161.5466 C.ar    1  UNL1        0.0013
     22 C         144.6355  142.8502  160.3681 C.ar    1  UNL1        0.0145
     23 C         144.0555  142.8181  158.9851 C.ar    1  UNL1        0.0479
     24 C         142.5897  143.0630  158.7807 C.ar    1  UNL1        0.0145
     25 C         141.7041  143.3400  159.9591 C.ar    1  UNL1        0.0013
     26 N         144.9411  142.5411  157.8067 N.pl3   1  UNL1       -0.3045
     27 C         146.4093  142.8376  157.8858 C.3     1  UNL1        0.1099
     28 C         147.2951  142.5606  156.7073 C.3     1  UNL1        0.1168
     29 N         146.7125  141.9870  155.4497 N.3     1  UNL1       -0.1559
     30 C         145.2442  141.6904  155.3706 C.3     1  UNL1        0.1168
     31 C         144.3586  141.9675  156.5491 C.3     1  UNL1        0.1099
     32 S         147.5982  141.7100  154.2712 S.O2    1  UNL1        0.0458
     33 C         148.4838  141.4330  153.0927 C.3     1  UNL1        0.1960
     34 O         148.8051  142.0251  155.1042 O.2     1  UNL1       -0.1572
     35 O         146.3912  141.3949  153.4382 O.2     1  UNL1       -0.1572
@<TRIPOS>BOND
     1    14    15    1
     2    15     8    1
     3     8     9   ar
     4     9    10   ar
     5    10     1    1
     6     1     2   ar
     7     2     3   ar
     8     3     4   ar
     9     4     5   ar
    10     5    20    1
    11    20    21   ar
    12    21    22   ar
    13    22    23   ar
    14    23    26    1
    15    26    27    1
    16    27    28    1
    17    28    29    1
    18    29    32    1
    19    32    33    1
    20    32    34    2
    21    32    35    2
    22    29    30    1
    23    30    31    1
    24    23    24   ar
    25    24    25   ar
    26     5     6   ar
    27     6     7    1
    28    10    11   ar
    29    11    12   ar
    30    12    16    1
    31    16    17    1
    32    12    13   ar
    33    13    18    1
    34    18    19    1
    35    13     8   ar
    36     6     1   ar
    37    25    20   ar
    38    31    26    1
@<TRIPOS>MOLECULE
*****
 35 38 0 0 0
SMALL
GASTEIGER

@<TRIPOS>ATOM
      1 C         143.1051  142.3458  163.3874 C.ar    1  UNL1        0.0154
      2 C         144.1217  143.3931  163.0413 C.ar    1  UNL1        0.0985
      3 N         144.8339  143.3400  161.7223 N.ar    1  UNL1       -0.2423
      4 C         144.5296  142.2397  160.7493 C.ar    1  UNL1        0.0985
      5 C         143.5130  141.1924  161.0953 C.ar    1  UNL1        0.0152
      6 C         142.8007  141.2455  162.4144 C.ar    1  UNL1       -0.0188
      7 C         141.7841  140.1983  162.7605 C.3     1  UNL1        0.0311
      8 C         140.3974  143.2181  166.1547 C.ar    1  UNL1        0.1754
      9 C         141.1097  143.1650  164.8356 C.ar    1  UNL1        0.0403
     10 C         142.3928  142.3989  164.7065 C.ar    1  UNL1        0.0074
     11 C         142.9637  141.6860  165.8963 C.ar    1  UNL1        0.0403
     12 C         142.2515  141.7391  167.2153 C.ar    1  UNL1        0.1754
     13 C         140.9683  142.5052  167.3445 C.ar    1  UNL1        0.2061
     14 C         138.5881  144.7680  165.1182 C.3     1  UNL1        0.2526
     15 O         139.1143  143.9842  166.2838 O.3     1  UNL1       -0.4683
     16 O         142.8223  141.0261  168.4052 O.3     1  UNL1       -0.4683
     17 C         142.4938  139.5820  168.6430 C.3     1  UNL1        0.2526
     18 O         140.2561  142.5583  168.6636 O.3     1  UNL1       -0.4654
     19 C         140.6156  143.6126  169.6682 C.3     1  UNL1        0.2528
     20 C         143.2086  140.0921  160.1224 C.ar    1  UNL1        0.0013
     21 C         142.8053  140.4246  158.7164 C.ar    1  UNL1        0.0013
     22 C         142.5009  139.3242  157.7434 C.ar    1  UNL1        0.0145
     23 C         142.5998  137.8915  158.1764 C.ar    1  UNL1        0.0479
     24 C         143.0032  137.5591  159.5825 C.ar    1  UNL1        0.0145
     25 C         143.3075  138.6594  160.5554 C.ar    1  UNL1        0.0013
     26 N         142.2955  136.7912  157.2035 N.pl3   1  UNL1       -0.3045
     27 C         143.1336  135.5473  157.1919 C.3     1  UNL1        0.1099
     28 C         142.8292  134.4469  156.2189 C.3     1  UNL1        0.1168
     29 N         141.6867  134.5905  155.2576 N.3     1  UNL1       -0.1559
     30 C         140.8486  135.8345  155.2693 C.3     1  UNL1        0.1168
     31 C         141.1530  136.9348  156.2422 C.3     1  UNL1        0.1099
     32 S         141.3824  133.4902  154.2847 S.O2    1  UNL1        0.0458
     33 C         141.0780  132.3899  153.3116 C.3     1  UNL1        0.1960
     34 O         141.3338  132.5047  155.4144 O.2     1  UNL1       -0.1572
     35 O         141.4309  134.4757  153.1549 O.2     1  UNL1       -0.1572
@<TRIPOS>BOND
     1    14    15    1
     2    15     8    1
     3     8     9   ar
     4     9    10   ar
     5    10     1    1
     6     1     2   ar
     7     2     3   ar
     8     3     4   ar
     9     4     5   ar
    10     5    20    1
    11    20    21   ar
    12    21    22   ar
    13    22    23   ar
    14    23    26    1
    15    26    27    1
    16    27    28    1
    17    28    29    1
    18    29    32    1
    19    32    33    1
    20    32    34    2
    21    32    35    2
    22    29    30    1
    23    30    31    1
    24    23    24   ar
    25    24    25   ar
    26     5     6   ar
    27     6     7    1
    28    10    11   ar
    29    11    12   ar
    30    12    16    1
    31    16    17    1
    32    12    13   ar
    33    13    18    1
    34    18    19    1
    35    13     8   ar
    36     6     1   ar
    37    25    20   ar
    38    31    26    1
@<TRIPOS>MOLECULE
*****
 35 38 0 0 0
SMALL
GASTEIGER

@<TRIPOS>ATOM
      1 C         142.0293  140.1161  164.2752 C.ar    1  UNL1        0.0154
      2 C         142.8515  138.8894  164.0123 C.ar    1  UNL1        0.0985
      3 N         143.3968  138.6322  162.6388 N.ar    1  UNL1       -0.2423
      4 C         143.1198  139.6016  161.5281 C.ar    1  UNL1        0.0985
      5 C         142.2976  140.8284  161.7910 C.ar    1  UNL1        0.0152
      6 C         141.7524  141.0856  163.1646 C.ar    1  UNL1       -0.0188
      7 C         140.9301  142.3123  163.4275 C.3     1  UNL1        0.0311
      8 C         141.6367  141.5920  167.9382 C.ar    1  UNL1        0.1754
      9 C         142.1819  141.3347  166.5647 C.ar    1  UNL1        0.0403
     10 C         141.4841  140.3734  165.6488 C.ar    1  UNL1        0.0074
     11 C         140.2412  139.6693  166.1063 C.ar    1  UNL1        0.0403
     12 C         139.6960  139.9266  167.4798 C.ar    1  UNL1        0.1754
     13 C         140.3937  140.8879  168.3958 C.ar    1  UNL1        0.2061
     14 C         143.6056  142.1479  169.5396 C.3     1  UNL1        0.2526
     15 O         142.3344  142.5533  168.8542 O.3     1  UNL1       -0.4683
     16 O         138.4530  139.2225  167.9374 O.3     1  UNL1       -0.4683
     17 C         137.6543  138.4039  166.9669 C.3     1  UNL1        0.2526
     18 O         139.8485  141.1452  169.7693 O.3     1  UNL1       -0.4654
     19 C         140.2868  140.2915  170.9222 C.3     1  UNL1        0.2528
     20 C         142.0206  141.7978  160.6805 C.ar    1  UNL1        0.0013
     21 C         143.0898  142.7492  160.2315 C.ar    1  UNL1        0.0013
     22 C         142.8128  143.7188  159.1208 C.ar    1  UNL1        0.0145
     23 C         141.4667  143.7368  158.4593 C.ar    1  UNL1        0.0479
     24 C         140.3975  142.7853  158.9084 C.ar    1  UNL1        0.0145
     25 C         140.6745  141.8158  160.0189 C.ar    1  UNL1        0.0013
     26 N         141.1897  144.7062  157.3487 N.pl3   1  UNL1       -0.3045
     27 C         142.0059  144.6592  156.0912 C.3     1  UNL1        0.1099
     28 C         141.7290  145.6286  154.9805 C.3     1  UNL1        0.1168
     29 N         140.6358  146.6452  155.1275 N.3     1  UNL1       -0.1559
     30 C         139.8195  146.6922  156.3852 C.3     1  UNL1        0.1168
     31 C         140.0965  145.7227  157.4957 C.3     1  UNL1        0.1099
     32 S         140.3588  147.6146  154.0169 S.O2    1  UNL1        0.0458
     33 C         140.0818  148.5841  152.9063 C.3     1  UNL1        0.1960
     34 O         141.2664  146.8363  153.1112 O.2     1  UNL1       -0.1572
     35 O         139.4512  148.3929  154.9227 O.2     1  UNL1       -0.1572
@<TRIPOS>BOND
     1    14    15    1
     2    15     8    1
     3     8     9   ar
     4     9    10   ar
     5    10     1    1
     6     1     2   ar
     7     2     3   ar
     8     3     4   ar
     9     4     5   ar
    10     5    20    1
    11    20    21   ar
    12    21    22   ar
    13    22    23   ar
    14    23    26    1
    15    26    27    1
    16    27    28    1
    17    28    29    1
    18    29    32    1
    19    32    33    1
    20    32    34    2
    21    32    35    2
    22    29    30    1
    23    30    31    1
    24    23    24   ar
    25    24    25   ar
    26     5     6   ar
    27     6     7    1
    28    10    11   ar
    29    11    12   ar
    30    12    16    1
    31    16    17    1
    32    12    13   ar
    33    13    18    1
    34    18    19    1
    35    13     8   ar
    36     6     1   ar
    37    25    20   ar
    38    31    26    1
