@<TRIPOS>MOLECULE
*****
 34 39 0 0 0
SMALL
GASTEIGER

@<TRIPOS>ATOM
      1 N         138.7285  141.0559  160.3492 N.ar    1  UNL1       -0.2701
      2 C         138.6910  142.5517  160.4557 C.ar    1  UNL1        0.3532
      3 O         137.6890  143.2148  161.3537 O.2     1  UNL1       -0.2443
      4 N         139.6554  143.3842  159.6640 N.ar    1  UNL1       -0.1606
      5 N         139.8547  144.8676  159.5653 N.ar    1  UNL1       -0.1372
      6 C         140.9799  145.1213  158.6062 C.ar    1  UNL1        0.2214
      7 N         141.4759  143.7946  158.1123 N.ar    1  UNL1       -0.2032
      8 C         140.6573  142.7211  158.7660 C.ar    1  UNL1        0.1717
      9 C         140.6948  141.2253  158.6597 C.ar    1  UNL1        0.0545
     10 C         141.5636  140.2972  157.8635 C.ar    1  UNL1       -0.0126
     11 C         141.1361  138.8909  158.1631 C.ar    1  UNL1        0.0210
     12 S         140.0031  138.9500  159.1444 S.2     1  UNL1       -0.0728
     13 C         139.7304  140.3927  159.4513 C.ar    1  UNL1        0.0965
     14 C         141.8337  137.7383  157.5037 C.3     1  UNL1        0.1054
     15 N         142.9589  137.9920  156.5447 N.3     1  UNL1       -0.2682
     16 C         143.3863  139.3982  156.2451 C.3     1  UNL1        0.0771
     17 C         142.6887  140.5508  156.9045 C.3     1  UNL1        0.0441
     18 C         137.7640  140.2232  161.1409 C.3     1  UNL1        0.1400
     19 C         138.6683  139.1988  165.4285 C.ar    1  UNL1        0.1410
     20 C         138.1545  140.5632  165.0756 C.ar    1  UNL1        0.0368
     21 C         137.8531  140.9047  163.6465 C.ar    1  UNL1        0.0030
     22 C         138.0655  139.8818  162.5701 C.ar    1  UNL1        0.0282
     23 C         138.5793  138.5174  162.9229 C.ar    1  UNL1        0.1410
     24 F         138.7916  137.4945  161.8466 F       1  UNL1       -0.2043
     25 C         138.8807  138.1759  164.3521 C.ar    1  UNL1        0.0662
     26 C         139.3582  139.9391  167.8214 C.3     1  UNL1        0.2525
     27 O         138.9698  138.8573  166.8577 O.3     1  UNL1       -0.4714
     28 C         143.6564  136.8394  155.8853 C.3     1  UNL1        0.0725
     29 C         143.1006  135.4523  156.0157 C.3     1  UNL1        0.0210
     30 C         143.6938  134.4969  157.0081 C.3     1  UNL1        0.0335
     31 C         143.1380  133.1098  157.1385 C.3     1  UNL1        0.1422
     32 O         141.9890  132.6782  156.2764 O.3     1  UNL1       -0.3538
     33 C         141.3957  133.6336  155.2839 C.3     1  UNL1        0.1422
     34 C         141.9515  135.0207  155.1535 C.3     1  UNL1        0.0335
@<TRIPOS>BOND
     1    26    27    1
     2    27    19    1
     3    19    20   ar
     4    20    21   ar
     5    21    22   ar
     6    22    18    1
     7    18     1    1
     8     1     2   ar
     9     2     3    2
    10     2     4   ar
    11     4     5   ar
    12     5     6   ar
    13     6     7   ar
    14     7     8   ar
    15     8     9   ar
    16     9    10   ar
    17    10    11   ar
    18    11    12   ar
    19    12    13   ar
    20    11    14    1
    21    14    15    1
    22    15    28    1
    23    28    29    1
    24    29    30    1
    25    30    31    1
    26    31    32    1
    27    32    33    1
    28    33    34    1
    29    15    16    1
    30    16    17    1
    31    22    23   ar
    32    23    24    1
    33    23    25   ar
    34    25    19   ar
    35    13     1   ar
    36    34    29    1
    37     8     4   ar
    38    13     9   ar
    39    17    10    1
@<TRIPOS>MOLECULE
*****
 34 39 0 0 0
SMALL
GASTEIGER

@<TRIPOS>ATOM
      1 N         139.8768  140.2040  167.4939 N.ar    1  UNL1       -0.2701
      2 C         139.9473  140.5642  168.9483 C.ar    1  UNL1        0.3532
      3 O         138.9116  140.0445  169.9008 O.2     1  UNL1       -0.2443
      4 N         141.0536  141.4441  169.4502 N.ar    1  UNL1       -0.1606
      5 N         141.3798  141.9644  170.8187 N.ar    1  UNL1       -0.1372
      6 C         142.6171  142.8057  170.7120 C.ar    1  UNL1        0.2214
      7 N         143.0556  142.8053  169.2776 N.ar    1  UNL1       -0.2032
      8 C         142.0893  141.9638  168.4977 C.ar    1  UNL1        0.1717
      9 C         142.0187  141.6036  167.0433 C.ar    1  UNL1        0.0545
     10 C         142.8906  141.9631  165.8768 C.ar    1  UNL1       -0.0126
     11 C         142.3231  141.3054  164.6540 C.ar    1  UNL1        0.0210
     12 S         141.1006  140.5394  165.0647 S.2     1  UNL1       -0.0728
     13 C         140.9124  140.7237  166.5414 C.ar    1  UNL1        0.0965
     14 C         142.9929  141.4889  163.3244 C.3     1  UNL1        0.1054
     15 N         144.2302  142.3302  163.2177 N.3     1  UNL1       -0.2682
     16 C         144.7976  142.9879  164.4406 C.3     1  UNL1        0.0771
     17 C         144.1278  142.8043  165.7701 C.3     1  UNL1        0.0441
     18 C         138.7704  139.3241  166.9919 C.3     1  UNL1        0.1400
     19 C         138.4310  138.4226  162.5962 C.ar    1  UNL1        0.1410
     20 C         138.9506  137.3773  163.5383 C.ar    1  UNL1        0.0368
     21 C         139.0638  137.6779  165.0035 C.ar    1  UNL1        0.0030
     22 C         138.6573  139.0236  165.5267 C.ar    1  UNL1        0.0282
     23 C         138.1377  140.0688  164.5847 C.ar    1  UNL1        0.1410
     24 F         137.7312  141.4146  165.1078 F       1  UNL1       -0.2043
     25 C         138.0245  139.7683  163.1194 C.ar    1  UNL1        0.0662
     26 C         139.4232  138.5168  160.1969 C.3     1  UNL1        0.2525
     27 O         138.3178  138.1221  161.1310 O.3     1  UNL1       -0.4714
     28 C         144.8999  142.5137  161.8882 C.3     1  UNL1        0.0725
     29 C         144.0846  142.8690  160.6803 C.3     1  UNL1        0.0210
     30 C         142.8146  143.6517  160.8364 C.3     1  UNL1        0.0335
     31 C         141.9993  144.0069  159.6286 C.3     1  UNL1        0.1422
     32 O         142.4539  143.5795  158.2646 O.3     1  UNL1       -0.3538
     33 C         143.7239  142.7967  158.1084 C.3     1  UNL1        0.1422
     34 C         144.5392  142.4415  159.3163 C.3     1  UNL1        0.0335
@<TRIPOS>BOND
     1    26    27    1
     2    27    19    1
     3    19    20   ar
     4    20    21   ar
     5    21    22   ar
     6    22    18    1
     7    18     1    1
     8     1     2   ar
     9     2     3    2
    10     2     4   ar
    11     4     5   ar
    12     5     6   ar
    13     6     7   ar
    14     7     8   ar
    15     8     9   ar
    16     9    10   ar
    17    10    11   ar
    18    11    12   ar
    19    12    13   ar
    20    11    14    1
    21    14    15    1
    22    15    28    1
    23    28    29    1
    24    29    30    1
    25    30    31    1
    26    31    32    1
    27    32    33    1
    28    33    34    1
    29    15    16    1
    30    16    17    1
    31    22    23   ar
    32    23    24    1
    33    23    25   ar
    34    25    19   ar
    35    13     1   ar
    36    34    29    1
    37     8     4   ar
    38    13     9   ar
    39    17    10    1
@<TRIPOS>MOLECULE
*****
 34 39 0 0 0
SMALL
GASTEIGER

@<TRIPOS>ATOM
      1 N         143.2094  142.8609  160.5150 N.ar    1  UNL1       -0.2701
      2 C         142.4065  143.9866  159.9334 C.ar    1  UNL1        0.3532
      3 O         142.6178  144.3999  158.5070 O.2     1  UNL1       -0.2443
      4 N         141.3923  144.6990  160.7784 N.ar    1  UNL1       -0.1606
      5 N         140.4599  145.8360  160.4822 N.ar    1  UNL1       -0.1372
      6 C         139.6723  146.1254  161.7256 C.ar    1  UNL1        0.2214
      7 N         140.1180  145.1673  162.7902 N.ar    1  UNL1       -0.2032
      8 C         141.1811  144.2857  162.2048 C.ar    1  UNL1        0.1717
      9 C         141.9840  143.1600  162.7862 C.ar    1  UNL1        0.0545
     10 C         141.9955  142.5351  164.1498 C.ar    1  UNL1       -0.0126
     11 C         143.0168  141.4365  164.1476 C.ar    1  UNL1        0.0210
     12 S         143.6365  141.3824  162.7827 S.2     1  UNL1       -0.0728
     13 C         142.9982  142.4476  161.9413 C.ar    1  UNL1        0.0965
     14 C         143.2505  140.6272  165.3888 C.3     1  UNL1        0.1054
     15 N         142.4629  140.9166  166.6322 N.3     1  UNL1       -0.2682
     16 C         141.4416  142.0153  166.6343 C.3     1  UNL1        0.0771
     17 C         141.2079  142.8245  165.3932 C.3     1  UNL1        0.0441
     18 C         144.2237  142.1484  159.6700 C.3     1  UNL1        0.1400
     19 C         142.9607  138.7046  157.0632 C.ar    1  UNL1        0.1410
     20 C         142.8960  138.5781  158.5565 C.ar    1  UNL1        0.0368
     21 C         143.3171  139.7260  159.4254 C.ar    1  UNL1        0.0030
     22 C         143.8027  141.0005  158.8011 C.ar    1  UNL1        0.0282
     23 C         143.8673  141.1271  157.3078 C.ar    1  UNL1        0.1410
     24 F         144.3529  142.4016  156.6835 F       1  UNL1       -0.2043
     25 C         143.4463  139.9791  156.4389 C.ar    1  UNL1        0.0662
     26 C         141.2529  136.8379  156.4726 C.3     1  UNL1        0.2525
     27 O         142.5397  137.5567  156.1942 O.3     1  UNL1       -0.4714
     28 C         142.6966  140.1075  167.8733 C.3     1  UNL1        0.0725
     29 C         142.0241  140.4927  169.1576 C.3     1  UNL1        0.0210
     30 C         142.6038  141.5821  170.0103 C.3     1  UNL1        0.0335
     31 C         141.9312  141.9673  171.2945 C.3     1  UNL1        0.1422
     32 O         140.6791  141.2633  171.7260 O.3     1  UNL1       -0.3538
     33 C         140.0994  140.1739  170.8733 C.3     1  UNL1        0.1422
     34 C         140.7719  139.7886  169.5891 C.3     1  UNL1        0.0335
@<TRIPOS>BOND
     1    26    27    1
     2    27    19    1
     3    19    20   ar
     4    20    21   ar
     5    21    22   ar
     6    22    18    1
     7    18     1    1
     8     1     2   ar
     9     2     3    2
    10     2     4   ar
    11     4     5   ar
    12     5     6   ar
    13     6     7   ar
    14     7     8   ar
    15     8     9   ar
    16     9    10   ar
    17    10    11   ar
    18    11    12   ar
    19    12    13   ar
    20    11    14    1
    21    14    15    1
    22    15    28    1
    23    28    29    1
    24    29    30    1
    25    30    31    1
    26    31    32    1
    27    32    33    1
    28    33    34    1
    29    15    16    1
    30    16    17    1
    31    22    23   ar
    32    23    24    1
    33    23    25   ar
    34    25    19   ar
    35    13     1   ar
    36    34    29    1
    37     8     4   ar
    38    13     9   ar
    39    17    10    1
@<TRIPOS>MOLECULE
*****
 34 39 0 0 0
SMALL
GASTEIGER

@<TRIPOS>ATOM
      1 N         139.1974  141.0913  160.2701 N.ar    1  UNL1       -0.2701
      2 C         139.3749  142.4143  159.5857 C.ar    1  UNL1        0.3532
      3 O         139.2908  142.5027  158.0907 O.2     1  UNL1       -0.2443
      4 N         139.6367  143.6489  160.3965 N.ar    1  UNL1       -0.1606
      5 N         139.8519  145.0805  160.0040 N.ar    1  UNL1       -0.1372
      6 C         140.0690  145.8769  161.2564 C.ar    1  UNL1        0.2214
      7 N         139.9881  144.9375  162.4230 N.ar    1  UNL1       -0.2032
      8 C         139.7208  143.5605  161.8915 C.ar    1  UNL1        0.1717
      9 C         139.5433  142.2375  162.5758 C.ar    1  UNL1        0.0545
     10 C         139.5729  141.8440  164.0230 C.ar    1  UNL1       -0.0126
     11 C         139.3294  140.3663  164.1066 C.ar    1  UNL1        0.0210
     12 S         139.1494  139.8464  162.7112 S.2     1  UNL1       -0.0728
     13 C         139.2815  141.0029  161.7650 C.ar    1  UNL1        0.0965
     14 C         139.3031  139.6849  165.4427 C.3     1  UNL1        0.1054
     15 N         139.5203  140.4813  166.6951 N.3     1  UNL1       -0.2682
     16 C         139.7637  141.9591  166.6114 C.3     1  UNL1        0.0771
     17 C         139.7900  142.6404  165.2754 C.3     1  UNL1        0.0441
     18 C         138.9356  139.8567  159.4592 C.3     1  UNL1        0.1400
     19 C         142.3474  137.7215  157.4466 C.ar    1  UNL1        0.1410
     20 C         142.4158  138.0292  158.9131 C.ar    1  UNL1        0.0368
     21 C         141.2786  138.7409  159.5840 C.ar    1  UNL1        0.0030
     22 C         140.0729  139.1450  158.7884 C.ar    1  UNL1        0.0282
     23 C         140.0044  138.8373  157.3219 C.ar    1  UNL1        0.1410
     24 F         138.7987  139.2413  156.5263 F       1  UNL1       -0.2043
     25 C         141.1417  138.1255  156.6510 C.ar    1  UNL1        0.0662
     26 C         143.4026  135.5328  156.5268 C.3     1  UNL1        0.2525
     27 O         143.4846  137.0097  156.7756 O.3     1  UNL1       -0.4714
     28 C         139.4940  139.8000  168.0311 C.3     1  UNL1        0.0725
     29 C         140.3018  140.3495  169.1693 C.3     1  UNL1        0.0210
     30 C         141.6689  139.8012  169.4523 C.3     1  UNL1        0.0335
     31 C         142.4767  140.3507  170.5904 C.3     1  UNL1        0.1422
     32 O         141.9173  141.4486  171.4457 O.3     1  UNL1       -0.3538
     33 C         140.5501  141.9971  171.1628 C.3     1  UNL1        0.1422
     34 C         139.7424  141.4475  170.0246 C.3     1  UNL1        0.0335
@<TRIPOS>BOND
     1    26    27    1
     2    27    19    1
     3    19    20   ar
     4    20    21   ar
     5    21    22   ar
     6    22    18    1
     7    18     1    1
     8     1     2   ar
     9     2     3    2
    10     2     4   ar
    11     4     5   ar
    12     5     6   ar
    13     6     7   ar
    14     7     8   ar
    15     8     9   ar
    16     9    10   ar
    17    10    11   ar
    18    11    12   ar
    19    12    13   ar
    20    11    14    1
    21    14    15    1
    22    15    28    1
    23    28    29    1
    24    29    30    1
    25    30    31    1
    26    31    32    1
    27    32    33    1
    28    33    34    1
    29    15    16    1
    30    16    17    1
    31    22    23   ar
    32    23    24    1
    33    23    25   ar
    34    25    19   ar
    35    13     1   ar
    36    34    29    1
    37     8     4   ar
    38    13     9   ar
    39    17    10    1
@<TRIPOS>MOLECULE
*****
 34 39 0 0 0
SMALL
GASTEIGER

@<TRIPOS>ATOM
      1 N         141.9567  139.7959  163.6166 N.ar    1  UNL1       -0.2701
      2 C         140.9694  138.6763  163.7646 C.ar    1  UNL1        0.3532
      3 O         141.1902  137.6134  164.7999 O.2     1  UNL1       -0.2443
      4 N         139.7613  138.6196  162.8774 N.ar    1  UNL1       -0.1606
      5 N         138.6240  137.6454  162.7914 N.ar    1  UNL1       -0.1372
      6 C         137.7003  138.1061  161.7030 C.ar    1  UNL1        0.2214
      7 N         138.2667  139.3651  161.1164 N.ar    1  UNL1       -0.2032
      8 C         139.5405  139.6825  161.8422 C.ar    1  UNL1        0.1717
      9 C         140.5278  140.8020  161.6943 C.ar    1  UNL1        0.0545
     10 C         140.5754  141.9828  160.7704 C.ar    1  UNL1       -0.0126
     11 C         141.8129  142.7692  161.0867 C.ar    1  UNL1        0.0210
     12 S         142.5302  142.0745  162.2060 S.2     1  UNL1       -0.0728
     13 C         141.7359  140.8586  162.5815 C.ar    1  UNL1        0.0965
     14 C         142.1267  144.0164  160.3146 C.3     1  UNL1        0.1054
     15 N         141.2031  144.4771  159.2263 N.3     1  UNL1       -0.2682
     16 C         139.9655  143.6906  158.9100 C.3     1  UNL1        0.0771
     17 C         139.6517  142.4435  159.6821 C.3     1  UNL1        0.0441
     18 C         143.1649  139.8525  164.5039 C.3     1  UNL1        0.1400
     19 C         142.7547  141.1902  168.7809 C.ar    1  UNL1        0.1410
     20 C         142.6571  139.7332  168.4382 C.ar    1  UNL1        0.0368
     21 C         142.7938  139.2873  167.0125 C.ar    1  UNL1        0.0030
     22 C         143.0282  140.2984  165.9296 C.ar    1  UNL1        0.0282
     23 C         143.1258  141.7554  166.2724 C.ar    1  UNL1        0.1410
     24 F         143.3602  142.7666  165.1895 F       1  UNL1       -0.2043
     25 C         142.9891  142.2013  167.6980 C.ar    1  UNL1        0.0662
     26 C         142.7920  143.0836  170.5595 C.3     1  UNL1        0.2525
     27 O         142.6180  141.6362  170.2066 O.3     1  UNL1       -0.4714
     28 C         141.5169  145.7242  158.4542 C.3     1  UNL1        0.0725
     29 C         141.0158  145.8827  157.0493 C.3     1  UNL1        0.0210
     30 C         139.7454  146.6356  156.7866 C.3     1  UNL1        0.0335
     31 C         139.2443  146.7940  155.3817 C.3     1  UNL1        0.1422
     32 O         140.0136  146.1996  154.2395 O.3     1  UNL1       -0.3538
     33 C         141.2841  145.4466  154.5022 C.3     1  UNL1        0.1422
     34 C         141.7852  145.2881  155.9071 C.3     1  UNL1        0.0335
@<TRIPOS>BOND
     1    26    27    1
     2    27    19    1
     3    19    20   ar
     4    20    21   ar
     5    21    22   ar
     6    22    18    1
     7    18     1    1
     8     1     2   ar
     9     2     3    2
    10     2     4   ar
    11     4     5   ar
    12     5     6   ar
    13     6     7   ar
    14     7     8   ar
    15     8     9   ar
    16     9    10   ar
    17    10    11   ar
    18    11    12   ar
    19    12    13   ar
    20    11    14    1
    21    14    15    1
    22    15    28    1
    23    28    29    1
    24    29    30    1
    25    30    31    1
    26    31    32    1
    27    32    33    1
    28    33    34    1
    29    15    16    1
    30    16    17    1
    31    22    23   ar
    32    23    24    1
    33    23    25   ar
    34    25    19   ar
    35    13     1   ar
    36    34    29    1
    37     8     4   ar
    38    13     9   ar
    39    17    10    1
@<TRIPOS>MOLECULE
*****
 34 39 0 0 0
SMALL
GASTEIGER

@<TRIPOS>ATOM
      1 N         141.8539  142.1111  160.1362 N.ar    1  UNL1       -0.2701
      2 C         141.2124  143.3615  159.6117 C.ar    1  UNL1        0.3532
      3 O         141.1287  143.5980  158.1328 O.2     1  UNL1       -0.2443
      4 N         140.6546  144.3754  160.5661 N.ar    1  UNL1       -0.1606
      5 N         139.9703  145.6917  160.3452 N.ar    1  UNL1       -0.1372
      6 C         139.6311  146.2688  161.6876 C.ar    1  UNL1        0.2214
      7 N         140.1057  145.3090  162.7381 N.ar    1  UNL1       -0.2032
      8 C         140.7384  144.1388  162.0450 C.ar    1  UNL1        0.1717
      9 C         141.3798  142.8884  162.5694 C.ar    1  UNL1        0.0545
     10 C         141.6057  142.3852  163.9644 C.ar    1  UNL1       -0.0126
     11 C         142.3030  141.0604  163.8720 C.ar    1  UNL1        0.0210
     12 S         142.5081  140.7448  162.4200 S.2     1  UNL1       -0.0728
     13 C         141.9376  141.8746  161.6149 C.ar    1  UNL1        0.0965
     14 C         142.6611  140.3126  165.1221 C.3     1  UNL1        0.1054
     15 N         142.3218  140.8896  166.4644 N.3     1  UNL1       -0.2682
     16 C         141.6245  142.2145  166.5567 C.3     1  UNL1        0.0771
     17 C         141.2664  142.9622  165.3067 C.3     1  UNL1        0.0441
     18 C         142.4117  141.0972  159.1816 C.3     1  UNL1        0.1400
     19 C         145.7613  142.2309  156.3988 C.ar    1  UNL1        0.1410
     20 C         144.5762  141.4741  155.8767 C.ar    1  UNL1        0.0368
     21 C         143.4596  141.0962  156.8043 C.ar    1  UNL1        0.0030
     22 C         143.5282  141.4751  158.2540 C.ar    1  UNL1        0.0282
     23 C         144.7134  142.2319  158.7761 C.ar    1  UNL1        0.1410
     24 F         144.7819  142.6108  160.2258 F       1  UNL1       -0.2043
     25 C         145.8299  142.6098  157.8485 C.ar    1  UNL1        0.0662
     26 C         148.1244  141.7761  155.4196 C.3     1  UNL1        0.2525
     27 O         146.8780  142.6089  155.4712 O.3     1  UNL1       -0.4714
     28 C         142.6799  140.1418  167.7144 C.3     1  UNL1        0.0725
     29 C         142.0093  140.4847  169.0116 C.3     1  UNL1        0.0210
     30 C         142.6564  141.4522  169.9576 C.3     1  UNL1        0.0335
     31 C         141.9859  141.7950  171.2548 C.3     1  UNL1        0.1422
     32 O         140.6682  141.1704  171.6060 O.3     1  UNL1       -0.3538
     33 C         140.0210  140.2029  170.6599 C.3     1  UNL1        0.1422
     34 C         140.6916  139.8600  169.3627 C.3     1  UNL1        0.0335
@<TRIPOS>BOND
     1    26    27    1
     2    27    19    1
     3    19    20   ar
     4    20    21   ar
     5    21    22   ar
     6    22    18    1
     7    18     1    1
     8     1     2   ar
     9     2     3    2
    10     2     4   ar
    11     4     5   ar
    12     5     6   ar
    13     6     7   ar
    14     7     8   ar
    15     8     9   ar
    16     9    10   ar
    17    10    11   ar
    18    11    12   ar
    19    12    13   ar
    20    11    14    1
    21    14    15    1
    22    15    28    1
    23    28    29    1
    24    29    30    1
    25    30    31    1
    26    31    32    1
    27    32    33    1
    28    33    34    1
    29    15    16    1
    30    16    17    1
    31    22    23   ar
    32    23    24    1
    33    23    25   ar
    34    25    19   ar
    35    13     1   ar
    36    34    29    1
    37     8     4   ar
    38    13     9   ar
    39    17    10    1
@<TRIPOS>MOLECULE
*****
 34 39 0 0 0
SMALL
GASTEIGER

@<TRIPOS>ATOM
      1 N         139.7146  142.2050  164.2775 N.ar    1  UNL1       -0.2701
      2 C         139.1543  140.8322  164.5051 C.ar    1  UNL1        0.3532
      3 O         138.7445  140.4086  165.8845 O.2     1  UNL1       -0.2443
      4 N         139.0040  139.8831  163.3533 N.ar    1  UNL1       -0.1606
      5 N         138.4872  138.4773  163.2721 N.ar    1  UNL1       -0.1372
      6 C         138.5777  138.0321  161.8426 C.ar    1  UNL1        0.2214
      7 N         139.1504  139.1628  161.0403 N.ar    1  UNL1       -0.2032
      8 C         139.4139  140.3068  161.9740 C.ar    1  UNL1        0.1717
      9 C         139.9741  141.6795  161.7465 C.ar    1  UNL1        0.0545
     10 C         140.4604  142.3726  160.5083 C.ar    1  UNL1       -0.0126
     11 C         140.9112  143.7500  160.8948 C.ar    1  UNL1        0.0210
     12 S         140.7036  143.9083  162.3719 S.2     1  UNL1       -0.0728
     13 C         140.1244  142.6286  162.8983 C.ar    1  UNL1        0.0965
     14 C         141.4525  144.6823  159.8517 C.3     1  UNL1        0.1054
     15 N         141.5430  144.2371  158.4222 N.3     1  UNL1       -0.2682
     16 C         141.0921  142.8596  158.0357 C.3     1  UNL1        0.0771
     17 C         140.5508  141.9274  159.0787 C.3     1  UNL1        0.0441
     18 C         139.8649  143.1541  165.4294 C.3     1  UNL1        0.1400
     19 C         142.7666  142.2299  168.7425 C.ar    1  UNL1        0.1410
     20 C         141.3397  142.5606  169.0658 C.ar    1  UNL1        0.0368
     21 C         140.3725  142.8687  167.9614 C.ar    1  UNL1        0.0030
     22 C         140.8321  142.8460  166.5338 C.ar    1  UNL1        0.0282
     23 C         142.2590  142.5152  166.2105 C.ar    1  UNL1        0.1410
     24 F         142.7187  142.4926  164.7828 F       1  UNL1       -0.2043
     25 C         143.2262  142.2072  167.3148 C.ar    1  UNL1        0.0662
     26 C         144.8174  142.9008  170.1894 C.3     1  UNL1        0.2525
     27 O         143.7339  141.9218  169.8468 O.3     1  UNL1       -0.4714
     28 C         142.0843  145.1693  157.3792 C.3     1  UNL1        0.0725
     29 C         141.1459  145.8858  156.4540 C.3     1  UNL1        0.0210
     30 C         139.9595  146.6175  157.0080 C.3     1  UNL1        0.0335
     31 C         139.0211  147.3340  156.0828 C.3     1  UNL1        0.1422
     32 O         139.2691  147.3188  154.6036 O.3     1  UNL1       -0.3538
     33 C         140.4555  146.5871  154.0495 C.3     1  UNL1        0.1422
     34 C         141.3939  145.8706  154.9747 C.3     1  UNL1        0.0335
@<TRIPOS>BOND
     1    26    27    1
     2    27    19    1
     3    19    20   ar
     4    20    21   ar
     5    21    22   ar
     6    22    18    1
     7    18     1    1
     8     1     2   ar
     9     2     3    2
    10     2     4   ar
    11     4     5   ar
    12     5     6   ar
    13     6     7   ar
    14     7     8   ar
    15     8     9   ar
    16     9    10   ar
    17    10    11   ar
    18    11    12   ar
    19    12    13   ar
    20    11    14    1
    21    14    15    1
    22    15    28    1
    23    28    29    1
    24    29    30    1
    25    30    31    1
    26    31    32    1
    27    32    33    1
    28    33    34    1
    29    15    16    1
    30    16    17    1
    31    22    23   ar
    32    23    24    1
    33    23    25   ar
    34    25    19   ar
    35    13     1   ar
    36    34    29    1
    37     8     4   ar
    38    13     9   ar
    39    17    10    1
@<TRIPOS>MOLECULE
*****
 34 39 0 0 0
SMALL
GASTEIGER

@<TRIPOS>ATOM
      1 N         139.6416  143.2969  160.4946 N.ar    1  UNL1       -0.2701
      2 C         138.7393  142.3476  159.7633 C.ar    1  UNL1        0.3532
      3 O         138.2418  142.6926  158.3908 O.2     1  UNL1       -0.2443
      4 N         138.3345  141.0533  160.4044 N.ar    1  UNL1       -0.1606
      5 N         137.4631  139.9280  159.9309 N.ar    1  UNL1       -0.1372
      6 C         137.4221  138.8876  161.0106 C.ar    1  UNL1        0.2214
      7 N         138.2681  139.3699  162.1515 N.ar    1  UNL1       -0.2032
      8 C         138.8321  140.7084  161.7769 C.ar    1  UNL1        0.1717
      9 C         139.7343  141.6578  162.5081 C.ar    1  UNL1        0.0545
     10 C         140.3778  141.5897  163.8614 C.ar    1  UNL1       -0.0126
     11 C         141.1803  142.8418  164.0565 C.ar    1  UNL1        0.0210
     12 S         141.0327  143.6838  162.8239 S.2     1  UNL1       -0.0728
     13 C         140.1390  142.9520  161.8669 C.ar    1  UNL1        0.0965
     14 C         141.9417  143.0536  165.3315 C.3     1  UNL1        0.1054
     15 N         141.9007  142.0132  166.4112 N.3     1  UNL1       -0.2682
     16 C         141.0981  140.7610  166.2160 C.3     1  UNL1        0.0771
     17 C         140.3368  140.5493  164.9411 C.3     1  UNL1        0.0441
     18 C         140.0464  144.5912  159.8534 C.3     1  UNL1        0.1400
     19 C         142.4635  144.5626  156.0577 C.ar    1  UNL1        0.1410
     20 C         142.6597  143.4826  157.0800 C.ar    1  UNL1        0.0368
     21 C         141.8540  143.4922  158.3452 C.ar    1  UNL1        0.0030
     22 C         140.8521  144.5817  158.5881 C.ar    1  UNL1        0.0282
     23 C         140.6558  145.6616  157.5658 C.ar    1  UNL1        0.1410
     24 F         139.6538  146.7511  157.8087 F       1  UNL1       -0.2043
     25 C         141.4615  145.6521  156.3006 C.ar    1  UNL1        0.0662
     26 C         142.9380  143.5803  153.6998 C.3     1  UNL1        0.2525
     27 O         143.2691  144.5531  154.7924 O.3     1  UNL1       -0.4714
     28 C         142.6620  142.2249  167.6861 C.3     1  UNL1        0.0725
     29 C         141.9405  142.2149  169.0011 C.3     1  UNL1        0.0210
     30 C         140.7134  143.0566  169.1897 C.3     1  UNL1        0.0335
     31 C         139.9919  143.0466  170.5047 C.3     1  UNL1        0.1422
     32 O         140.4974  142.1948  171.6311 O.3     1  UNL1       -0.3538
     33 C         141.7246  141.3530  171.4425 C.3     1  UNL1        0.1422
     34 C         142.4461  141.3630  170.1275 C.3     1  UNL1        0.0335
@<TRIPOS>BOND
     1    26    27    1
     2    27    19    1
     3    19    20   ar
     4    20    21   ar
     5    21    22   ar
     6    22    18    1
     7    18     1    1
     8     1     2   ar
     9     2     3    2
    10     2     4   ar
    11     4     5   ar
    12     5     6   ar
    13     6     7   ar
    14     7     8   ar
    15     8     9   ar
    16     9    10   ar
    17    10    11   ar
    18    11    12   ar
    19    12    13   ar
    20    11    14    1
    21    14    15    1
    22    15    28    1
    23    28    29    1
    24    29    30    1
    25    30    31    1
    26    31    32    1
    27    32    33    1
    28    33    34    1
    29    15    16    1
    30    16    17    1
    31    22    23   ar
    32    23    24    1
    33    23    25   ar
    34    25    19   ar
    35    13     1   ar
    36    34    29    1
    37     8     4   ar
    38    13     9   ar
    39    17    10    1
@<TRIPOS>MOLECULE
*****
 34 39 0 0 0
SMALL
GASTEIGER

@<TRIPOS>ATOM
      1 N         141.5096  137.9978  156.9463 N.ar    1  UNL1       -0.2701
      2 C         140.3393  138.5713  156.2035 C.ar    1  UNL1        0.3532
      3 O         140.2082  138.3511  154.7255 O.2     1  UNL1       -0.2443
      4 N         139.3003  139.3649  156.9387 N.ar    1  UNL1       -0.1606
      5 N         138.0466  140.0475  156.4779 N.ar    1  UNL1       -0.1372
      6 C         137.4030  140.6895  157.6710 C.ar    1  UNL1        0.2214
      7 N         138.2589  140.4037  158.8693 N.ar    1  UNL1       -0.2032
      8 C         139.4315  139.5850  158.4167 C.ar    1  UNL1        0.1717
      9 C         140.6017  139.0115  159.1594 C.ar    1  UNL1        0.0545
     10 C         140.9952  139.0628  160.6060 C.ar    1  UNL1       -0.0126
     11 C         142.2775  138.3008  160.7648 C.ar    1  UNL1        0.0210
     12 S         142.6765  137.7787  159.4164 S.2     1  UNL1       -0.0728
     13 C         141.6408  138.2179  158.4242 C.ar    1  UNL1        0.0965
     14 C         142.9161  138.1809  162.1167 C.3     1  UNL1        0.1054
     15 N         142.2726  138.8229  163.3099 N.3     1  UNL1       -0.2682
     16 C         140.9903  139.5849  163.1510 C.3     1  UNL1        0.0771
     17 C         140.3516  139.7048  161.7991 C.3     1  UNL1        0.0441
     18 C         142.5487  137.2042  156.2110 C.3     1  UNL1        0.1400
     19 C         142.5010  132.7086  156.4057 C.ar    1  UNL1        0.1410
     20 C         143.4360  133.4874  157.2828 C.ar    1  UNL1        0.0368
     21 C         143.4519  134.9860  157.2179 C.ar    1  UNL1        0.0030
     22 C         142.5328  135.7057  156.2759 C.ar    1  UNL1        0.0282
     23 C         141.5979  134.9269  155.3989 C.ar    1  UNL1        0.1410
     24 F         140.6788  135.6466  154.4569 F       1  UNL1       -0.2043
     25 C         141.5820  133.4283  155.4638 C.ar    1  UNL1        0.0662
     26 C         143.7752  130.4450  156.4562 C.3     1  UNL1        0.2525
     27 O         142.4850  131.2101  156.4706 O.3     1  UNL1       -0.4714
     28 C         142.9112  138.7030  164.6617 C.3     1  UNL1        0.0725
     29 C         143.0097  139.9048  165.5539 C.3     1  UNL1        0.0210
     30 C         142.5751  139.8129  166.9866 C.3     1  UNL1        0.0335
     31 C         142.6736  141.0147  167.8788 C.3     1  UNL1        0.1422
     32 O         143.2069  142.3083  167.3383 O.3     1  UNL1       -0.3538
     33 C         143.6416  142.4002  165.9057 C.3     1  UNL1        0.1422
     34 C         143.5430  141.1984  165.0135 C.3     1  UNL1        0.0335
@<TRIPOS>BOND
     1    26    27    1
     2    27    19    1
     3    19    20   ar
     4    20    21   ar
     5    21    22   ar
     6    22    18    1
     7    18     1    1
     8     1     2   ar
     9     2     3    2
    10     2     4   ar
    11     4     5   ar
    12     5     6   ar
    13     6     7   ar
    14     7     8   ar
    15     8     9   ar
    16     9    10   ar
    17    10    11   ar
    18    11    12   ar
    19    12    13   ar
    20    11    14    1
    21    14    15    1
    22    15    28    1
    23    28    29    1
    24    29    30    1
    25    30    31    1
    26    31    32    1
    27    32    33    1
    28    33    34    1
    29    15    16    1
    30    16    17    1
    31    22    23   ar
    32    23    24    1
    33    23    25   ar
    34    25    19   ar
    35    13     1   ar
    36    34    29    1
    37     8     4   ar
    38    13     9   ar
    39    17    10    1
