@<TRIPOS>MOLECULE
*****
 26 29 0 0 0
SMALL
GASTEIGER

@<TRIPOS>ATOM
      1 C         139.0228  145.1819  162.4590 C.3     1  UNL1        0.1123
      2 N         138.7706  143.7046  162.3955 N.am    1  UNL1       -0.2606
      3 C         138.2312  142.9523  161.2152 C.3     1  UNL1        0.1169
      4 C         138.1407  141.5031  161.5911 C.3     1  UNL1        0.1212
      5 N         138.6243  141.3597  163.0038 N.am    1  UNL1       -0.2413
      6 C         139.0136  142.7203  163.5009 C.2     1  UNL1        0.3111
      7 O         139.5515  143.0404  164.8641 O.2     1  UNL1       -0.2520
      8 C         138.7045  140.0802  163.7827 C.ar    1  UNL1        0.0562
      9 C         139.3773  138.8798  163.1858 C.ar    1  UNL1        0.0150
     10 C         139.4575  137.6003  163.9647 C.ar    1  UNL1        0.0021
     11 C         138.8650  137.5214  165.3404 C.ar    1  UNL1        0.0115
     12 C         138.1922  138.7218  165.9373 C.ar    1  UNL1        0.0589
     13 CL        137.5996  138.6429  167.3130 Cl      1  UNL1       -0.0822
     14 C         138.1120  140.0013  165.1585 C.ar    1  UNL1        0.0263
     15 C         140.3841  145.7249  162.1396 C.3     1  UNL1        0.0939
     16 C         145.5978  142.0948  163.6932 C.3     1  UNL1        0.0000
     17 C         144.4189  143.0180  163.7820 C.3     1  UNL1        0.0013
     18 C         144.8570  143.0164  165.2166 C.3     1  UNL1        0.0000
     19 C         143.3921  143.9406  164.3689 C.3     1  UNL1        0.0160
     20 C         142.3367  144.5443  163.4905 C.3     1  UNL1        0.0576
     21 C         142.3080  144.2253  162.0251 C.3     1  UNL1        0.0173
     22 C         143.3347  143.3027  161.4381 C.3     1  UNL1        0.0160
     23 C         143.3061  142.9837  159.9727 C.3     1  UNL1        0.0014
     24 C         142.1529  144.0983  160.9688 C.3     1  UNL1        0.0721
     25 N         141.5767  144.8152  162.1538 N.3     1  UNL1       -0.2725
     26 C         144.3902  142.6991  162.3166 C.3     1  UNL1        0.0014
@<TRIPOS>BOND
     1    16    17    1
     2    17    18    1
     3    17    19    1
     4    20    19    1
     5    20    21    1
     6    21    22    1
     7    22    23    1
     8    22    24    1
     9    24    25    1
    10    25    15    1
    11    15     1    1
    12     1     2    1
    13     2     3    1
    14     3     4    1
    15     4     5    1
    16     5     8    1
    17     8     9   ar
    18     9    10   ar
    19    10    11   ar
    20    11    12   ar
    21    12    13    1
    22    12    14   ar
    23     5     6   am
    24     6     7    2
    25    22    26    1
    26    26    17    1
    27    25    20    1
    28     6     2   am
    29    14     8   ar
@<TRIPOS>MOLECULE
*****
 26 29 0 0 0
SMALL
GASTEIGER

@<TRIPOS>ATOM
      1 C         141.5153  138.2436  163.9461 C.3     1  UNL1        0.1123
      2 N         140.7737  138.8305  165.1104 N.am    1  UNL1       -0.2606
      3 C         139.2843  138.8512  165.2870 C.3     1  UNL1        0.1169
      4 C         138.9811  139.5332  166.5881 C.3     1  UNL1        0.1212
      5 N         140.2833  139.9340  167.2156 N.am    1  UNL1       -0.2413
      6 C         141.3911  139.4997  166.3023 C.2     1  UNL1        0.3111
      7 O         142.8587  139.6995  166.5394 O.2     1  UNL1       -0.2520
      8 C         140.4486  140.6443  168.5264 C.ar    1  UNL1        0.0562
      9 C         140.7141  139.8593  169.7767 C.ar    1  UNL1        0.0150
     10 C         140.8794  140.5697  171.0874 C.ar    1  UNL1        0.0021
     11 C         140.7792  142.0651  171.1479 C.ar    1  UNL1        0.0115
     12 C         140.5138  142.8502  169.8975 C.ar    1  UNL1        0.0589
     13 CL        140.4137  144.3456  169.9580 Cl      1  UNL1       -0.0822
     14 C         140.3485  142.1398  168.5868 C.ar    1  UNL1        0.0263
     15 C         141.9678  139.1279  162.8221 C.3     1  UNL1        0.0939
     16 C         143.6020  145.3494  164.0037 C.3     1  UNL1        0.0000
     17 C         142.8141  144.1094  163.7006 C.3     1  UNL1        0.0013
     18 C         141.7117  145.1267  163.6937 C.3     1  UNL1        0.0000
     19 C         141.6434  143.2228  163.3952 C.3     1  UNL1        0.0160
     20 C         141.8487  141.7495  163.2020 C.3     1  UNL1        0.0576
     21 C         143.2247  141.1629  163.3142 C.3     1  UNL1        0.0173
     22 C         144.3953  142.0496  163.6196 C.3     1  UNL1        0.0160
     23 C         145.7714  141.4630  163.7317 C.3     1  UNL1        0.0014
     24 C         144.1363  140.5949  163.3613 C.3     1  UNL1        0.0721
     25 N         142.6659  140.4216  163.1202 N.3     1  UNL1       -0.2725
     26 C         144.1901  143.5228  163.8128 C.3     1  UNL1        0.0014
@<TRIPOS>BOND
     1    16    17    1
     2    17    18    1
     3    17    19    1
     4    20    19    1
     5    20    21    1
     6    21    22    1
     7    22    23    1
     8    22    24    1
     9    24    25    1
    10    25    15    1
    11    15     1    1
    12     1     2    1
    13     2     3    1
    14     3     4    1
    15     4     5    1
    16     5     8    1
    17     8     9   ar
    18     9    10   ar
    19    10    11   ar
    20    11    12   ar
    21    12    13    1
    22    12    14   ar
    23     5     6   am
    24     6     7    2
    25    22    26    1
    26    26    17    1
    27    25    20    1
    28     6     2   am
    29    14     8   ar
@<TRIPOS>MOLECULE
*****
 26 29 0 0 0
SMALL
GASTEIGER

@<TRIPOS>ATOM
      1 C         138.8542  139.1377  163.5791 C.3     1  UNL1        0.1123
      2 N         139.0758  139.4655  165.0260 N.am    1  UNL1       -0.2606
      3 C         138.2991  138.9129  166.1842 C.3     1  UNL1        0.1169
      4 C         138.8562  139.5091  167.4427 C.3     1  UNL1        0.1212
      5 N         139.9774  140.4302  167.0624 N.am    1  UNL1       -0.2413
      6 C         140.1130  140.4032  165.5688 C.2     1  UNL1        0.3111
      7 O         141.1109  141.1780  164.7600 O.2     1  UNL1       -0.2520
      8 C         140.8156  141.2367  168.0094 C.ar    1  UNL1        0.0562
      9 C         142.2348  140.8354  168.2830 C.ar    1  UNL1        0.0150
     10 C         143.0730  141.6419  169.2300 C.ar    1  UNL1        0.0021
     11 C         142.4921  142.8497  169.9035 C.ar    1  UNL1        0.0115
     12 C         141.0729  143.2511  169.6300 C.ar    1  UNL1        0.0589
     13 CL        140.4920  144.4590  170.3035 Cl      1  UNL1       -0.0822
     14 C         140.2346  142.4446  168.6829 C.ar    1  UNL1        0.0263
     15 C         138.0440  140.0596  162.7168 C.3     1  UNL1        0.0939
     16 C         139.8824  146.2568  161.7225 C.3     1  UNL1        0.0000
     17 C         139.7101  144.7740  161.5756 C.3     1  UNL1        0.0013
     18 C         140.5862  145.0532  160.3903 C.3     1  UNL1        0.0000
     19 C         139.8421  143.3881  161.0171 C.3     1  UNL1        0.0160
     20 C         139.1579  142.2381  161.6948 C.3     1  UNL1        0.0576
     21 C         138.3418  142.4739  162.9310 C.3     1  UNL1        0.0173
     22 C         138.2098  143.8597  163.4895 C.3     1  UNL1        0.0160
     23 C         137.3936  144.0956  164.7257 C.3     1  UNL1        0.0014
     24 C         137.7282  142.4767  163.8138 C.3     1  UNL1        0.0721
     25 N         138.2757  141.5404  162.7776 N.3     1  UNL1       -0.2725
     26 C         138.8940  145.0098  162.8118 C.3     1  UNL1        0.0014
@<TRIPOS>BOND
     1    16    17    1
     2    17    18    1
     3    17    19    1
     4    20    19    1
     5    20    21    1
     6    21    22    1
     7    22    23    1
     8    22    24    1
     9    24    25    1
    10    25    15    1
    11    15     1    1
    12     1     2    1
    13     2     3    1
    14     3     4    1
    15     4     5    1
    16     5     8    1
    17     8     9   ar
    18     9    10   ar
    19    10    11   ar
    20    11    12   ar
    21    12    13    1
    22    12    14   ar
    23     5     6   am
    24     6     7    2
    25    22    26    1
    26    26    17    1
    27    25    20    1
    28     6     2   am
    29    14     8   ar
@<TRIPOS>MOLECULE
*****
 26 29 0 0 0
SMALL
GASTEIGER

@<TRIPOS>ATOM
      1 C         138.3979  139.0486  162.0099 C.3     1  UNL1        0.1123
      2 N         139.4817  139.2273  163.0314 N.am    1  UNL1       -0.2606
      3 C         140.9508  139.3350  162.7484 C.3     1  UNL1        0.1169
      4 C         141.6639  139.5040  164.0571 C.3     1  UNL1        0.1212
      5 N         140.6354  139.5009  165.1490 N.am    1  UNL1       -0.2413
      6 C         139.2868  139.3299  164.5151 C.2     1  UNL1        0.3111
      7 O         137.9738  139.2717  165.2380 O.2     1  UNL1       -0.2520
      8 C         140.9078  139.6437  166.6172 C.ar    1  UNL1        0.0562
      9 C         142.2863  139.3919  167.1522 C.ar    1  UNL1        0.0150
     10 C         142.5587  139.5347  168.6203 C.ar    1  UNL1        0.0021
     11 C         141.4526  139.9293  169.5534 C.ar    1  UNL1        0.0115
     12 C         140.0740  140.1811  169.0184 C.ar    1  UNL1        0.0589
     13 CL        138.9679  140.5757  169.9516 Cl      1  UNL1       -0.0822
     14 C         139.8016  140.0383  167.5503 C.ar    1  UNL1        0.0263
     15 C         137.5244  140.2081  161.6323 C.3     1  UNL1        0.0939
     16 C         140.0064  146.2529  161.9044 C.3     1  UNL1        0.0000
     17 C         139.6560  144.8690  161.4436 C.3     1  UNL1        0.0013
     18 C         140.4893  145.3267  160.2833 C.3     1  UNL1        0.0000
     19 C         139.5950  143.6442  160.5799 C.3     1  UNL1        0.0160
     20 C         138.8224  142.4423  161.0365 C.3     1  UNL1        0.0576
     21 C         138.1108  142.4652  162.3567 C.3     1  UNL1        0.0173
     22 C         138.1718  143.6900  163.2204 C.3     1  UNL1        0.0160
     23 C         137.4602  143.7130  164.5408 C.3     1  UNL1        0.0014
     24 C         137.5531  142.3243  163.2650 C.3     1  UNL1        0.0721
     25 N         137.9287  141.6039  162.0041 N.3     1  UNL1       -0.2725
     26 C         138.9444  144.8919  162.7639 C.3     1  UNL1        0.0014
@<TRIPOS>BOND
     1    16    17    1
     2    17    18    1
     3    17    19    1
     4    20    19    1
     5    20    21    1
     6    21    22    1
     7    22    23    1
     8    22    24    1
     9    24    25    1
    10    25    15    1
    11    15     1    1
    12     1     2    1
    13     2     3    1
    14     3     4    1
    15     4     5    1
    16     5     8    1
    17     8     9   ar
    18     9    10   ar
    19    10    11   ar
    20    11    12   ar
    21    12    13    1
    22    12    14   ar
    23     5     6   am
    24     6     7    2
    25    22    26    1
    26    26    17    1
    27    25    20    1
    28     6     2   am
    29    14     8   ar
@<TRIPOS>MOLECULE
*****
 26 29 0 0 0
SMALL
GASTEIGER

@<TRIPOS>ATOM
      1 C         144.2642  139.7201  164.5023 C.3     1  UNL1        0.1123
      2 N         143.7872  141.1332  164.3426 N.am    1  UNL1       -0.2606
      3 C         144.2137  142.3069  165.1737 C.3     1  UNL1        0.1169
      4 C         143.4902  143.5199  164.6687 C.3     1  UNL1        0.1212
      5 N         142.6164  143.0959  163.5255 N.am    1  UNL1       -0.2413
      6 C         142.8001  141.6208  163.3240 C.2     1  UNL1        0.3111
      7 O         142.1165  140.7809  162.2860 O.2     1  UNL1       -0.2520
      8 C         141.7170  143.9899  162.7244 C.ar    1  UNL1        0.0562
      9 C         140.5409  144.6517  163.3792 C.ar    1  UNL1        0.0150
     10 C         139.6415  145.5458  162.5781 C.ar    1  UNL1        0.0021
     11 C         139.9182  145.7780  161.1223 C.ar    1  UNL1        0.0115
     12 C         141.0943  145.1162  160.4675 C.ar    1  UNL1        0.0589
     13 CL        141.3710  145.3485  159.0116 Cl      1  UNL1       -0.0822
     14 C         141.9938  144.2222  161.2685 C.ar    1  UNL1        0.0263
     15 C         143.3507  138.6810  165.0815 C.3     1  UNL1        0.0939
     16 C         139.2709  140.5050  169.8567 C.3     1  UNL1        0.0000
     17 C         140.5030  140.0947  169.1059 C.3     1  UNL1        0.0013
     18 C         141.0777  140.2544  170.4823 C.3     1  UNL1        0.0000
     19 C         141.9347  139.7399  168.8332 C.3     1  UNL1        0.0160
     20 C         142.3638  139.3679  167.4449 C.3     1  UNL1        0.0576
     21 C         141.3612  139.3506  166.3293 C.3     1  UNL1        0.0173
     22 C         139.9296  139.7055  166.6020 C.3     1  UNL1        0.0160
     23 C         138.9270  139.6882  165.4864 C.3     1  UNL1        0.0014
     24 C         140.7720  139.2914  165.4320 C.3     1  UNL1        0.0721
     25 N         142.1774  139.0965  165.9186 N.3     1  UNL1       -0.2725
     26 C         139.5005  140.0775  167.9903 C.3     1  UNL1        0.0014
@<TRIPOS>BOND
     1    16    17    1
     2    17    18    1
     3    17    19    1
     4    20    19    1
     5    20    21    1
     6    21    22    1
     7    22    23    1
     8    22    24    1
     9    24    25    1
    10    25    15    1
    11    15     1    1
    12     1     2    1
    13     2     3    1
    14     3     4    1
    15     4     5    1
    16     5     8    1
    17     8     9   ar
    18     9    10   ar
    19    10    11   ar
    20    11    12   ar
    21    12    13    1
    22    12    14   ar
    23     5     6   am
    24     6     7    2
    25    22    26    1
    26    26    17    1
    27    25    20    1
    28     6     2   am
    29    14     8   ar
@<TRIPOS>MOLECULE
*****
 26 29 0 0 0
SMALL
GASTEIGER

@<TRIPOS>ATOM
      1 C         144.8723  142.5976  163.0662 C.3     1  UNL1        0.1123
      2 N         144.0823  141.6118  163.8750 N.am    1  UNL1       -0.2606
      3 C         143.6114  140.2659  163.4096 C.3     1  UNL1        0.1169
      4 C         142.8627  139.6209  164.5380 C.3     1  UNL1        0.1212
      5 N         142.8709  140.5684  165.7010 N.am    1  UNL1       -0.2413
      6 C         143.6247  141.7988  165.2911 C.2     1  UNL1        0.3111
      7 O         143.8767  143.0044  166.1473 O.2     1  UNL1       -0.2520
      8 C         142.2367  140.3276  167.0388 C.ar    1  UNL1        0.0562
      9 C         140.9802  141.0554  167.4150 C.ar    1  UNL1        0.0150
     10 C         140.3460  140.8146  168.7529 C.ar    1  UNL1        0.0021
     11 C         140.9683  139.8462  169.7145 C.ar    1  UNL1        0.0115
     12 C         142.2249  139.1184  169.3383 C.ar    1  UNL1        0.0589
     13 CL        142.8472  138.1499  170.3000 Cl      1  UNL1       -0.0822
     14 C         142.8591  139.3591  168.0005 C.ar    1  UNL1        0.0263
     15 C         144.2206  143.8545  162.5706 C.3     1  UNL1        0.0939
     16 C         137.7424  144.4315  163.2588 C.3     1  UNL1        0.0000
     17 C         139.2150  144.4051  163.5428 C.3     1  UNL1        0.0013
     18 C         138.6938  144.7620  164.9033 C.3     1  UNL1        0.0000
     19 C         140.5066  144.5026  164.2992 C.3     1  UNL1        0.0160
     20 C         141.8081  144.2524  163.5965 C.3     1  UNL1        0.0576
     21 C         141.8179  143.9047  162.1374 C.3     1  UNL1        0.0173
     22 C         140.5263  143.8071  161.3810 C.3     1  UNL1        0.0160
     23 C         140.5360  143.4593  159.9219 C.3     1  UNL1        0.0014
     24 C         141.9927  143.6486  161.1080 C.3     1  UNL1        0.0721
     25 N         142.7327  143.9057  162.3871 N.3     1  UNL1       -0.2725
     26 C         139.2248  144.0573  162.0837 C.3     1  UNL1        0.0014
@<TRIPOS>BOND
     1    16    17    1
     2    17    18    1
     3    17    19    1
     4    20    19    1
     5    20    21    1
     6    21    22    1
     7    22    23    1
     8    22    24    1
     9    24    25    1
    10    25    15    1
    11    15     1    1
    12     1     2    1
    13     2     3    1
    14     3     4    1
    15     4     5    1
    16     5     8    1
    17     8     9   ar
    18     9    10   ar
    19    10    11   ar
    20    11    12   ar
    21    12    13    1
    22    12    14   ar
    23     5     6   am
    24     6     7    2
    25    22    26    1
    26    26    17    1
    27    25    20    1
    28     6     2   am
    29    14     8   ar
@<TRIPOS>MOLECULE
*****
 26 29 0 0 0
SMALL
GASTEIGER

@<TRIPOS>ATOM
      1 C         144.6183  139.5876  163.4625 C.3     1  UNL1        0.1123
      2 N         144.3353  141.0177  163.1095 N.am    1  UNL1       -0.2606
      3 C         145.3379  142.1329  163.0775 C.3     1  UNL1        0.1169
      4 C         144.6225  143.3882  162.6748 C.3     1  UNL1        0.1212
      5 N         143.1775  143.0488  162.4579 N.am    1  UNL1       -0.2413
      6 C         143.0001  141.5838  162.7266 C.2     1  UNL1        0.3111
      7 O         141.7133  140.8191  162.6294 O.2     1  UNL1       -0.2520
      8 C         142.0993  144.0063  162.0448 C.ar    1  UNL1        0.0562
      9 C         141.2842  144.7130  163.0870 C.ar    1  UNL1        0.0150
     10 C         140.2060  145.6705  162.6739 C.ar    1  UNL1        0.0021
     11 C         139.9429  145.9214  161.2187 C.ar    1  UNL1        0.0115
     12 C         140.7580  145.2147  160.1764 C.ar    1  UNL1        0.0589
     13 CL        140.4948  145.4655  158.7212 Cl      1  UNL1       -0.0822
     14 C         141.8362  144.2571  160.5895 C.ar    1  UNL1        0.0263
     15 C         144.3242  139.0838  164.8444 C.3     1  UNL1        0.0939
     16 C         138.0300  138.8714  166.6083 C.3     1  UNL1        0.0000
     17 C         139.3418  138.5693  165.9466 C.3     1  UNL1        0.0013
     18 C         138.4827  137.5138  165.3157 C.3     1  UNL1        0.0000
     19 C         140.3553  137.9007  165.0658 C.3     1  UNL1        0.0160
     20 C         141.7722  138.3924  165.0456 C.3     1  UNL1        0.0576
     21 C         142.1758  139.5527  165.9062 C.3     1  UNL1        0.0173
     22 C         141.1624  140.2213  166.7870 C.3     1  UNL1        0.0160
     23 C         141.5659  141.3817  167.6477 C.3     1  UNL1        0.0014
     24 C         142.6188  140.3627  166.4571 C.3     1  UNL1        0.0721
     25 N         142.9709  139.3067  165.4517 N.3     1  UNL1       -0.2725
     26 C         139.7454  139.7296  166.8072 C.3     1  UNL1        0.0014
@<TRIPOS>BOND
     1    16    17    1
     2    17    18    1
     3    17    19    1
     4    20    19    1
     5    20    21    1
     6    21    22    1
     7    22    23    1
     8    22    24    1
     9    24    25    1
    10    25    15    1
    11    15     1    1
    12     1     2    1
    13     2     3    1
    14     3     4    1
    15     4     5    1
    16     5     8    1
    17     8     9   ar
    18     9    10   ar
    19    10    11   ar
    20    11    12   ar
    21    12    13    1
    22    12    14   ar
    23     5     6   am
    24     6     7    2
    25    22    26    1
    26    26    17    1
    27    25    20    1
    28     6     2   am
    29    14     8   ar
@<TRIPOS>MOLECULE
*****
 26 29 0 0 0
SMALL
GASTEIGER

@<TRIPOS>ATOM
      1 C         143.6679  138.0019  161.5613 C.3     1  UNL1        0.1123
      2 N         142.3109  138.2082  162.1664 N.am    1  UNL1       -0.2606
      3 C         141.0092  138.2401  161.4217 C.3     1  UNL1        0.1169
      4 C         139.9111  138.4704  162.4173 C.3     1  UNL1        0.1212
      5 N         140.5343  138.5809  163.7773 N.am    1  UNL1       -0.2413
      6 C         142.0174  138.4189  163.6221 C.2     1  UNL1        0.3111
      7 O         143.0293  138.4602  164.7287 O.2     1  UNL1       -0.2520
      8 C         139.8027  138.8127  165.0661 C.ar    1  UNL1        0.0562
      9 C         138.5835  138.0023  165.3927 C.ar    1  UNL1        0.0150
     10 C         137.8519  138.2342  166.6815 C.ar    1  UNL1        0.0021
     11 C         138.3396  139.2764  167.6438 C.ar    1  UNL1        0.0115
     12 C         139.5589  140.0868  167.3172 C.ar    1  UNL1        0.0589
     13 CL        140.0465  141.1290  168.2794 Cl      1  UNL1       -0.0822
     14 C         140.2905  139.8550  166.0284 C.ar    1  UNL1        0.0263
     15 C         144.4244  139.1694  161.0004 C.3     1  UNL1        0.0939
     16 C         143.6930  144.8435  164.1696 C.3     1  UNL1        0.0000
     17 C         144.0823  143.4364  163.8253 C.3     1  UNL1        0.0013
     18 C         144.6845  143.5456  165.1948 C.3     1  UNL1        0.0000
     19 C         144.6808  142.0673  163.9565 C.3     1  UNL1        0.0160
     20 C         144.5418  141.0776  162.8379 C.3     1  UNL1        0.0576
     21 C         143.8045  141.4571  161.5880 C.3     1  UNL1        0.0173
     22 C         143.2060  142.8263  161.4568 C.3     1  UNL1        0.0160
     23 C         142.4686  143.2059  160.2069 C.3     1  UNL1        0.0014
     24 C         143.3122  141.5731  160.6393 C.3     1  UNL1        0.0721
     25 N         144.0835  140.5635  161.4367 N.3     1  UNL1       -0.2725
     26 C         143.3449  143.8159  162.5754 C.3     1  UNL1        0.0014
@<TRIPOS>BOND
     1    16    17    1
     2    17    18    1
     3    17    19    1
     4    20    19    1
     5    20    21    1
     6    21    22    1
     7    22    23    1
     8    22    24    1
     9    24    25    1
    10    25    15    1
    11    15     1    1
    12     1     2    1
    13     2     3    1
    14     3     4    1
    15     4     5    1
    16     5     8    1
    17     8     9   ar
    18     9    10   ar
    19    10    11   ar
    20    11    12   ar
    21    12    13    1
    22    12    14   ar
    23     5     6   am
    24     6     7    2
    25    22    26    1
    26    26    17    1
    27    25    20    1
    28     6     2   am
    29    14     8   ar
@<TRIPOS>MOLECULE
*****
 26 29 0 0 0
SMALL
GASTEIGER

@<TRIPOS>ATOM
      1 C         144.4673  139.5952  164.4689 C.3     1  UNL1        0.1123
      2 N         143.5943  140.3237  163.4905 N.am    1  UNL1       -0.2606
      3 C         143.3352  139.9198  162.0693 C.3     1  UNL1        0.1169
      4 C         142.4081  140.9303  161.4618 C.3     1  UNL1        0.1212
      5 N         142.0941  141.9589  162.5077 N.am    1  UNL1       -0.2413
      6 C         142.8273  141.5839  163.7614 C.2     1  UNL1        0.3111
      7 O         142.7985  142.3370  165.0583 O.2     1  UNL1       -0.2520
      8 C         141.2034  143.1527  162.3307 C.ar    1  UNL1        0.0562
      9 C         141.6974  144.3519  161.5772 C.ar    1  UNL1        0.0150
     10 C         140.8067  145.5458  161.4002 C.ar    1  UNL1        0.0021
     11 C         139.4220  145.5404  161.9769 C.ar    1  UNL1        0.0115
     12 C         138.9279  144.3412  162.7305 C.ar    1  UNL1        0.0589
     13 CL        137.5433  144.3359  163.3072 Cl      1  UNL1       -0.0822
     14 C         139.8187  143.1474  162.9074 C.ar    1  UNL1        0.0263
     15 C         143.8545  138.6621  165.4708 C.3     1  UNL1        0.0939
     16 C         139.2709  140.4726  169.7704 C.3     1  UNL1        0.0000
     17 C         140.5858  140.0997  169.1521 C.3     1  UNL1        0.0013
     18 C         141.0255  140.3598  170.5624 C.3     1  UNL1        0.0000
     19 C         142.0532  139.8171  169.0236 C.3     1  UNL1        0.0160
     20 C         142.6244  139.4038  167.6996 C.3     1  UNL1        0.0576
     21 C         141.7280  139.2732  166.5040 C.3     1  UNL1        0.0173
     22 C         140.2605  139.5558  166.6325 C.3     1  UNL1        0.0160
     23 C         139.3641  139.4252  165.4369 C.3     1  UNL1        0.0014
     24 C         141.2254  139.1357  165.5636 C.3     1  UNL1        0.0721
     25 N         142.5903  139.0479  166.1798 N.3     1  UNL1       -0.2725
     26 C         139.6894  139.9690  167.9565 C.3     1  UNL1        0.0014
@<TRIPOS>BOND
     1    16    17    1
     2    17    18    1
     3    17    19    1
     4    20    19    1
     5    20    21    1
     6    21    22    1
     7    22    23    1
     8    22    24    1
     9    24    25    1
    10    25    15    1
    11    15     1    1
    12     1     2    1
    13     2     3    1
    14     3     4    1
    15     4     5    1
    16     5     8    1
    17     8     9   ar
    18     9    10   ar
    19    10    11   ar
    20    11    12   ar
    21    12    13    1
    22    12    14   ar
    23     5     6   am
    24     6     7    2
    25    22    26    1
    26    26    17    1
    27    25    20    1
    28     6     2   am
    29    14     8   ar
