@<TRIPOS>MOLECULE
*****
 31 34 0 0 0
SMALL
GASTEIGER

@<TRIPOS>ATOM
      1 C         140.2421  143.2485  164.1413 C.2     1  UNL1        0.0596
      2 C         140.9718  142.8701  162.8865 C.2     1  UNL1        0.0324
      3 C         140.7908  143.6836  161.6394 C.2     1  UNL1        0.0889
      4 N         141.3735  143.5543  160.2633 N.2     1  UNL1       -0.2236
      5 C         140.8229  144.6662  159.4204 C.2     1  UNL1        0.1859
      6 N         139.8999  145.4827  160.2756 N.2     1  UNL1       -0.2387
      7 C         139.8800  144.8755  161.6470 C.3     1  UNL1        0.1679
      8 C         139.1503  145.2538  162.9018 C.2     1  UNL1        0.0164
      9 C         139.3314  144.4402  164.1489 C.2     1  UNL1        0.0690
     10 CL        138.6016  144.8186  165.4037 Cl      1  UNL1       -0.0812
     11 N         140.7851  140.8078  167.8828 N.3     1  UNL1       -0.2698
     12 C         139.6570  140.4996  166.9434 C.3     1  UNL1        0.0938
     13 C         139.4760  141.3131  165.6963 C.3     1  UNL1        0.1081
     14 N         140.4231  142.4349  165.3885 N.pl3   1  UNL1       -0.3040
     15 C         141.5512  142.7431  166.3279 C.3     1  UNL1        0.1081
     16 C         141.7322  141.9295  167.5750 C.3     1  UNL1        0.0938
     17 C         142.3048  139.3966  169.4477 C.3     1  UNL1        0.0188
     18 C         140.9662  139.9943  169.1299 C.3     1  UNL1        0.0722
     19 S         141.1397  144.9175  157.9759 S.3     1  UNL1       -0.0777
     20 C         140.0387  144.9266  156.9572 C.3     1  UNL1        0.0477
     21 C         140.1874  143.4350  157.0141 C.3     1  UNL1        0.0113
     22 C         138.9688  144.6239  155.9504 C.3     1  UNL1        0.0122
     23 C         138.3890  145.9264  155.4843 C.3     1  UNL1        0.0206
     24 C         139.1006  147.0341  156.2030 C.3     1  UNL1        0.0756
     25 C         140.1202  146.4163  157.1134 C.3     1  UNL1        0.0301
     26 N         138.8386  148.5020  156.0401 N.am    1  UNL1       -0.2723
     27 C         139.3058  149.2147  154.8056 C.2     1  UNL1        0.4017
     28 O         140.0349  148.4595  153.7341 O.2     1  UNL1       -0.2264
     29 H         138.3601  148.9977  156.7433 H       1  UNL1        0.1527
     30 O         139.0438  150.6827  154.6426 O.3     1  UNL1       -0.4306
     31 C         138.9575  151.5678  155.8505 C.3     1  UNL1        0.2573
@<TRIPOS>BOND
     1    17    18    1
     2    18    11    1
     3    11    12    1
     4    12    13    1
     5    13    14    1
     6    14     1    1
     7     1     2    2
     8     2     3    1
     9     3     4    2
    10     4     5    1
    11     5    19    1
    12    19    20    1
    13    20    21    1
    14    20    22    1
    15    22    23    1
    16    23    24    1
    17    24    26    1
    18    26    27   am
    19    27    28    2
    20    27    30    1
    21    30    31    1
    22    24    25    1
    23     5     6    2
    24     6     7    1
    25     7     8    1
    26     8     9    2
    27     9    10    1
    28    14    15    1
    29    15    16    1
    30    16    11    1
    31     9     1    1
    32     7     3    1
    33    25    20    1
    34    26    29    1
@<TRIPOS>MOLECULE
*****
 31 34 0 0 0
SMALL
GASTEIGER

@<TRIPOS>ATOM
      1 C         139.2227  139.6931  162.9352 C.2     1  UNL1        0.0596
      2 C         138.7597  140.8228  162.0636 C.2     1  UNL1        0.0324
      3 C         138.6568  140.6313  160.5794 C.2     1  UNL1        0.0889
      4 N         138.2348  141.5547  159.4752 N.2     1  UNL1       -0.2236
      5 C         138.3341  140.8043  158.1802 C.2     1  UNL1        0.1859
      6 N         138.8173  139.4172  158.4840 N.2     1  UNL1       -0.2387
      7 C         139.0168  139.3103  159.9669 C.3     1  UNL1        0.1679
      8 C         139.4798  138.1807  160.8385 C.2     1  UNL1        0.0164
      9 C         139.5827  138.3721  162.3226 C.2     1  UNL1        0.0690
     10 CL        140.0457  137.2425  163.1942 Cl      1  UNL1       -0.0812
     11 N         139.5315  140.2675  167.3877 N.3     1  UNL1       -0.2698
     12 C         140.4725  140.9914  166.4711 C.3     1  UNL1        0.0938
     13 C         140.3696  140.8000  164.9869 C.3     1  UNL1        0.1081
     14 N         139.3256  139.8846  164.4194 N.pl3   1  UNL1       -0.3040
     15 C         138.3846  139.1606  165.3360 C.3     1  UNL1        0.1081
     16 C         138.4875  139.3520  166.8202 C.3     1  UNL1        0.0938
     17 C         140.7526  139.8136  169.6356 C.3     1  UNL1        0.0188
     18 C         139.6344  140.4589  168.8719 C.3     1  UNL1        0.0722
     19 S         138.0073  141.3460  156.8201 S.3     1  UNL1       -0.0777
     20 C         137.2979  140.4825  155.8195 C.3     1  UNL1        0.0477
     21 C         138.6846  140.1716  155.3396 C.3     1  UNL1        0.0113
     22 C         136.8783  139.5541  154.7186 C.3     1  UNL1        0.0122
     23 C         135.3806  139.4717  154.7273 C.3     1  UNL1        0.0206
     24 C         134.8745  140.3493  155.8336 C.3     1  UNL1        0.0756
     25 C         136.0594  140.9740  156.5087 C.3     1  UNL1        0.0301
     26 N         133.4361  140.5644  156.2005 N.am    1  UNL1       -0.2723
     27 C         132.8147  139.7588  157.3028 C.2     1  UNL1        0.4017
     28 O         133.6318  138.7382  158.0381 O.2     1  UNL1       -0.2264
     29 H         132.8998  141.2342  155.7178 H       1  UNL1        0.1527
     30 O         131.3762  139.9739  157.6697 O.3     1  UNL1       -0.4306
     31 C         130.5095  138.8023  158.0247 C.3     1  UNL1        0.2573
@<TRIPOS>BOND
     1    17    18    1
     2    18    11    1
     3    11    12    1
     4    12    13    1
     5    13    14    1
     6    14     1    1
     7     1     2    2
     8     2     3    1
     9     3     4    2
    10     4     5    1
    11     5    19    1
    12    19    20    1
    13    20    21    1
    14    20    22    1
    15    22    23    1
    16    23    24    1
    17    24    26    1
    18    26    27   am
    19    27    28    2
    20    27    30    1
    21    30    31    1
    22    24    25    1
    23     5     6    2
    24     6     7    1
    25     7     8    1
    26     8     9    2
    27     9    10    1
    28    14    15    1
    29    15    16    1
    30    16    11    1
    31     9     1    1
    32     7     3    1
    33    25    20    1
    34    26    29    1
@<TRIPOS>MOLECULE
*****
 31 34 0 0 0
SMALL
GASTEIGER

@<TRIPOS>ATOM
      1 C         142.2724  139.8301  163.6322 C.2     1  UNL1        0.0596
      2 C         141.3835  139.9435  162.4292 C.2     1  UNL1        0.0324
      3 C         141.8482  139.4223  161.1017 C.2     1  UNL1        0.0889
      4 N         141.1970  139.3944  159.7507 N.2     1  UNL1       -0.2236
      5 C         142.1481  138.7426  158.7911 C.2     1  UNL1        0.1859
      6 N         143.3870  138.3677  159.5491 N.2     1  UNL1       -0.2387
      7 C         143.2017  138.7877  160.9771 C.3     1  UNL1        0.1679
      8 C         144.0904  138.6744  162.1801 C.2     1  UNL1        0.0164
      9 C         143.6258  139.1957  163.5076 C.2     1  UNL1        0.0690
     10 CL        144.5146  139.0823  164.7107 Cl      1  UNL1       -0.0812
     11 N         140.8783  141.3938  167.6149 N.3     1  UNL1       -0.2698
     12 C         140.5514  139.9885  167.2049 C.3     1  UNL1        0.0938
     13 C         141.0161  139.4673  165.8773 C.3     1  UNL1        0.1081
     14 N         141.8077  140.3514  164.9598 N.pl3   1  UNL1       -0.3040
     15 C         142.1346  141.7567  165.3699 C.3     1  UNL1        0.1081
     16 C         141.6699  142.2779  166.6975 C.3     1  UNL1        0.0938
     17 C         140.4285  143.3899  169.2160 C.3     1  UNL1        0.0188
     18 C         140.4137  141.9151  168.9425 C.3     1  UNL1        0.0722
     19 S         141.9032  138.5071  157.3301 S.3     1  UNL1       -0.0777
     20 C         142.9494  137.8321  156.4936 C.3     1  UNL1        0.0477
     21 C         143.5029  139.2187  156.3481 C.3     1  UNL1        0.0113
     22 C         144.1113  137.4470  155.6266 C.3     1  UNL1        0.0122
     23 C         144.0573  135.9635  155.4112 C.3     1  UNL1        0.0206
     24 C         142.8619  135.4318  156.1450 C.3     1  UNL1        0.0756
     25 C         142.1772  136.5866  156.8140 C.3     1  UNL1        0.0301
     26 N         142.4275  133.9971  156.2002 N.am    1  UNL1       -0.2723
     27 C         143.1273  133.0363  157.1151 C.2     1  UNL1        0.4017
     28 O         144.2615  133.5102  157.9749 O.2     1  UNL1       -0.2264
     29 H         141.6831  133.6862  155.6359 H       1  UNL1        0.1527
     30 O         142.6929  131.6016  157.1704 O.3     1  UNL1       -0.4306
     31 C         143.6811  130.5321  157.5304 C.3     1  UNL1        0.2573
@<TRIPOS>BOND
     1    17    18    1
     2    18    11    1
     3    11    12    1
     4    12    13    1
     5    13    14    1
     6    14     1    1
     7     1     2    2
     8     2     3    1
     9     3     4    2
    10     4     5    1
    11     5    19    1
    12    19    20    1
    13    20    21    1
    14    20    22    1
    15    22    23    1
    16    23    24    1
    17    24    26    1
    18    26    27   am
    19    27    28    2
    20    27    30    1
    21    30    31    1
    22    24    25    1
    23     5     6    2
    24     6     7    1
    25     7     8    1
    26     8     9    2
    27     9    10    1
    28    14    15    1
    29    15    16    1
    30    16    11    1
    31     9     1    1
    32     7     3    1
    33    25    20    1
    34    26    29    1
@<TRIPOS>MOLECULE
*****
 31 34 0 0 0
SMALL
GASTEIGER

@<TRIPOS>ATOM
      1 C         138.5871  140.3983  158.9929 C.2     1  UNL1        0.0596
      2 C         138.1641  140.6463  160.4105 C.2     1  UNL1        0.0324
      3 C         138.5416  139.6725  161.4871 C.2     1  UNL1        0.0889
      4 N         138.2692  139.6516  162.9620 N.2     1  UNL1       -0.2236
      5 C         138.9014  138.4167  163.5326 C.2     1  UNL1        0.1859
      6 N         139.5645  137.6745  162.4103 N.2     1  UNL1       -0.2387
      7 C         139.3421  138.4506  161.1461 C.3     1  UNL1        0.1679
      8 C         139.7651  138.2026  159.7285 C.2     1  UNL1        0.0164
      9 C         139.3876  139.1765  158.6519 C.2     1  UNL1        0.0690
     10 CL        139.8106  138.9284  157.2343 Cl      1  UNL1       -0.0812
     11 N         137.4546  143.3199  155.7630 N.3     1  UNL1       -0.2698
     12 C         138.6679  143.5700  156.6087 C.3     1  UNL1        0.0938
     13 C         139.0454  142.5961  157.6853 C.3     1  UNL1        0.1081
     14 N         138.2096  141.3722  157.9162 N.pl3   1  UNL1       -0.3040
     15 C         136.9962  141.1220  157.0705 C.3     1  UNL1        0.1081
     16 C         136.6187  142.0959  155.9939 C.3     1  UNL1        0.0938
     17 C         136.6440  143.7928  153.3403 C.3     1  UNL1        0.0188
     18 C         137.0770  144.2936  154.6864 C.3     1  UNL1        0.0722
     19 S         138.8752  137.9977  164.9726 S.3     1  UNL1       -0.0777
     20 C         139.3861  138.9268  166.0336 C.3     1  UNL1        0.0477
     21 C         137.9499  138.9718  166.4641 C.3     1  UNL1        0.0113
     22 C         139.5968  139.8654  167.1845 C.3     1  UNL1        0.0122
     23 C         141.0564  140.2062  167.2435 C.3     1  UNL1        0.0206
     24 C         141.7478  139.4783  166.1290 C.3     1  UNL1        0.0756
     25 C         140.7155  138.6876  165.3812 C.3     1  UNL1        0.0301
     26 N         143.2140  139.5317  165.8170 N.am    1  UNL1       -0.2723
     27 C         143.6932  140.2398  164.5846 C.2     1  UNL1        0.4017
     28 O         142.7062  140.8944  163.6641 O.2     1  UNL1       -0.2264
     29 H         143.8618  139.1020  166.4212 H       1  UNL1        0.1527
     30 O         145.1595  140.2932  164.2725 O.3     1  UNL1       -0.4306
     31 C         145.7787  141.5735  163.7958 C.3     1  UNL1        0.2573
@<TRIPOS>BOND
     1    17    18    1
     2    18    11    1
     3    11    12    1
     4    12    13    1
     5    13    14    1
     6    14     1    1
     7     1     2    2
     8     2     3    1
     9     3     4    2
    10     4     5    1
    11     5    19    1
    12    19    20    1
    13    20    21    1
    14    20    22    1
    15    22    23    1
    16    23    24    1
    17    24    26    1
    18    26    27   am
    19    27    28    2
    20    27    30    1
    21    30    31    1
    22    24    25    1
    23     5     6    2
    24     6     7    1
    25     7     8    1
    26     8     9    2
    27     9    10    1
    28    14    15    1
    29    15    16    1
    30    16    11    1
    31     9     1    1
    32     7     3    1
    33    25    20    1
    34    26    29    1
@<TRIPOS>MOLECULE
*****
 31 34 0 0 0
SMALL
GASTEIGER

@<TRIPOS>ATOM
      1 C         139.1306  139.9435  162.9726 C.2     1  UNL1        0.0596
      2 C         140.0195  139.1249  162.0838 C.2     1  UNL1        0.0324
      3 C         139.7814  139.1000  160.6031 C.2     1  UNL1        0.0889
      4 N         140.4870  138.3916  159.4849 N.2     1  UNL1       -0.2236
      5 C         139.7962  138.7474  158.2018 C.2     1  UNL1        0.1859
      6 N         138.6637  139.6757  158.5271 N.2     1  UNL1       -0.2387
      7 C         138.6546  139.8936  160.0111 C.3     1  UNL1        0.1679
      8 C         137.7658  140.7122  160.9000 C.2     1  UNL1        0.0164
      9 C         138.0039  140.7371  162.3807 C.2     1  UNL1        0.0690
     10 CL        137.1150  141.5557  163.2695 Cl      1  UNL1       -0.0812
     11 N         139.8448  140.0182  167.4150 N.3     1  UNL1       -0.2698
     12 C         140.7022  140.8453  166.5036 C.3     1  UNL1        0.0938
     13 C         140.4641  140.8204  165.0228 C.3     1  UNL1        0.1081
     14 N         139.3687  139.9684  164.4535 N.pl3   1  UNL1       -0.3040
     15 C         138.5112  139.1413  165.3650 C.3     1  UNL1        0.1081
     16 C         138.7493  139.1663  166.8457 C.3     1  UNL1        0.0938
     17 C         139.0668  140.6635  169.8084 C.3     1  UNL1        0.0188
     18 C         140.0828  140.0431  168.8958 C.3     1  UNL1        0.0722
     19 S         140.1719  138.2605  156.8337 S.3     1  UNL1       -0.0777
     20 C         141.6118  138.0115  156.4955 C.3     1  UNL1        0.0477
     21 C         141.7263  139.5048  156.5784 C.3     1  UNL1        0.0113
     22 C         143.0757  138.0746  156.1746 C.3     1  UNL1        0.0122
     23 C         143.5651  136.6723  155.9640 C.3     1  UNL1        0.0206
     24 C         142.4036  135.7426  156.1548 C.3     1  UNL1        0.0756
     25 C         141.1964  136.5701  156.4833 C.3     1  UNL1        0.0301
     26 N         142.4424  134.2476  156.0377 N.am    1  UNL1       -0.2723
     27 C         143.0908  133.4277  157.1134 C.2     1  UNL1        0.4017
     28 O         143.7005  134.1027  158.3062 O.2     1  UNL1       -0.2264
     29 H         142.0422  133.8047  155.2548 H       1  UNL1        0.1527
     30 O         143.1297  131.9327  156.9963 O.3     1  UNL1       -0.4306
     31 C         144.3267  131.1729  157.4861 C.3     1  UNL1        0.2573
@<TRIPOS>BOND
     1    17    18    1
     2    18    11    1
     3    11    12    1
     4    12    13    1
     5    13    14    1
     6    14     1    1
     7     1     2    2
     8     2     3    1
     9     3     4    2
    10     4     5    1
    11     5    19    1
    12    19    20    1
    13    20    21    1
    14    20    22    1
    15    22    23    1
    16    23    24    1
    17    24    26    1
    18    26    27   am
    19    27    28    2
    20    27    30    1
    21    30    31    1
    22    24    25    1
    23     5     6    2
    24     6     7    1
    25     7     8    1
    26     8     9    2
    27     9    10    1
    28    14    15    1
    29    15    16    1
    30    16    11    1
    31     9     1    1
    32     7     3    1
    33    25    20    1
    34    26    29    1
@<TRIPOS>MOLECULE
*****
 31 34 0 0 0
SMALL
GASTEIGER

@<TRIPOS>ATOM
      1 C         140.3045  143.1676  164.2824 C.2     1  UNL1        0.0596
      2 C         140.9068  142.7795  162.9645 C.2     1  UNL1        0.0324
      3 C         140.6437  143.6128  161.7453 C.2     1  UNL1        0.0889
      4 N         141.0973  143.4798  160.3217 N.2     1  UNL1       -0.2236
      5 C         140.5123  144.6189  159.5406 C.2     1  UNL1        0.1859
      6 N         139.6971  145.4559  160.4813 N.2     1  UNL1       -0.2387
      7 C         139.7783  144.8340  161.8439 C.3     1  UNL1        0.1679
      8 C         139.1761  145.2220  163.1618 C.2     1  UNL1        0.0164
      9 C         139.4392  144.3888  164.3810 C.2     1  UNL1        0.0690
     10 CL        138.8369  144.7769  165.6989 Cl      1  UNL1       -0.0812
     11 N         141.0938  140.6679  167.9401 N.3     1  UNL1       -0.2698
     12 C         139.8133  140.4980  167.1776 C.3     1  UNL1        0.0938
     13 C         139.5502  141.3313  165.9584 C.3     1  UNL1        0.1081
     14 N         140.5676  142.3344  165.5017 N.pl3   1  UNL1       -0.3040
     15 C         141.8482  142.5042  166.2641 C.3     1  UNL1        0.1081
     16 C         142.1112  141.6710  167.4833 C.3     1  UNL1        0.0938
     17 C         142.6064  140.0517  169.9606 C.3     1  UNL1        0.0188
     18 C         141.3570  139.8347  169.1593 C.3     1  UNL1        0.0722
     19 S         140.7081  144.8760  158.0758 S.3     1  UNL1       -0.0777
     20 C         140.8306  143.7247  157.1221 C.3     1  UNL1        0.0477
     21 C         142.2966  144.0367  157.1804 C.3     1  UNL1        0.0113
     22 C         141.2596  142.6386  156.1806 C.3     1  UNL1        0.0122
     23 C         140.0331  141.8961  155.7397 C.3     1  UNL1        0.0206
     24 C         138.8460  142.5232  156.4088 C.3     1  UNL1        0.0756
     25 C         139.3389  143.6534  157.2632 C.3     1  UNL1        0.0301
     26 N         137.4170  142.0954  156.2513 N.am    1  UNL1       -0.2723
     27 C         136.9053  140.9000  156.9989 C.2     1  UNL1        0.4017
     28 O         137.8226  140.1323  157.9041 O.2     1  UNL1       -0.2264
     29 H         136.8150  142.5992  155.6572 H       1  UNL1        0.1527
     30 O         135.4762  140.4721  156.8414 O.3     1  UNL1       -0.4306
     31 C         134.9360  140.1478  155.4801 C.3     1  UNL1        0.2573
@<TRIPOS>BOND
     1    17    18    1
     2    18    11    1
     3    11    12    1
     4    12    13    1
     5    13    14    1
     6    14     1    1
     7     1     2    2
     8     2     3    1
     9     3     4    2
    10     4     5    1
    11     5    19    1
    12    19    20    1
    13    20    21    1
    14    20    22    1
    15    22    23    1
    16    23    24    1
    17    24    26    1
    18    26    27   am
    19    27    28    2
    20    27    30    1
    21    30    31    1
    22    24    25    1
    23     5     6    2
    24     6     7    1
    25     7     8    1
    26     8     9    2
    27     9    10    1
    28    14    15    1
    29    15    16    1
    30    16    11    1
    31     9     1    1
    32     7     3    1
    33    25    20    1
    34    26    29    1
@<TRIPOS>MOLECULE
*****
 31 34 0 0 0
SMALL
GASTEIGER

@<TRIPOS>ATOM
      1 C         143.5882  141.0337  159.1906 C.2     1  UNL1        0.0596
      2 C         143.7890  139.8728  160.1191 C.2     1  UNL1        0.0324
      3 C         142.9165  139.7213  161.3298 C.2     1  UNL1        0.0889
      4 N         142.8792  138.6888  162.4172 N.2     1  UNL1       -0.2236
      5 C         141.7830  139.0600  163.3715 C.2     1  UNL1        0.1859
      6 N         141.1428  140.3219  162.8738 N.2     1  UNL1       -0.2387
      7 C         141.8433  140.7306  161.6119 C.3     1  UNL1        0.1679
      8 C         141.6426  141.8914  160.6834 C.2     1  UNL1        0.0164
      9 C         142.5151  142.0429  159.4727 C.2     1  UNL1        0.0690
     10 CL        142.3144  143.2038  158.5441 Cl      1  UNL1       -0.0812
     11 N         146.2058  141.4882  155.5584 N.3     1  UNL1       -0.2698
     12 C         146.3760  142.4141  156.7262 C.3     1  UNL1        0.0938
     13 C         145.5035  142.2626  157.9369 C.3     1  UNL1        0.1081
     14 N         144.4608  141.1852  157.9798 N.pl3   1  UNL1       -0.3040
     15 C         144.2905  140.2593  156.8120 C.3     1  UNL1        0.1081
     16 C         145.1630  140.4108  155.6013 C.3     1  UNL1        0.0938
     17 C         147.8875  142.8883  154.1579 C.3     1  UNL1        0.0188
     18 C         147.0782  141.6397  154.3477 C.3     1  UNL1        0.0722
     19 S         141.3952  138.3023  164.6066 S.3     1  UNL1       -0.0777
     20 C         140.0233  138.4702  165.1896 C.3     1  UNL1        0.0477
     21 C         139.6133  137.5352  164.0907 C.3     1  UNL1        0.0113
     22 C         138.5658  138.4427  165.5429 C.3     1  UNL1        0.0122
     23 C         138.3618  139.3255  166.7383 C.3     1  UNL1        0.0206
     24 C         139.6933  139.8987  167.1238 C.3     1  UNL1        0.0756
     25 C         140.7202  139.3701  166.1667 C.3     1  UNL1        0.0301
     26 N         139.9525  140.8359  168.2660 N.am    1  UNL1       -0.2723
     27 C         139.2214  140.6572  169.5635 C.2     1  UNL1        0.4017
     28 O         138.2311  139.5412  169.7188 O.2     1  UNL1       -0.2264
     29 H         140.6024  141.5683  168.1640 H       1  UNL1        0.1527
     30 O         139.4805  141.5944  170.7057 O.3     1  UNL1       -0.4306
     31 C         140.8413  142.1991  170.8858 C.3     1  UNL1        0.2573
@<TRIPOS>BOND
     1    17    18    1
     2    18    11    1
     3    11    12    1
     4    12    13    1
     5    13    14    1
     6    14     1    1
     7     1     2    2
     8     2     3    1
     9     3     4    2
    10     4     5    1
    11     5    19    1
    12    19    20    1
    13    20    21    1
    14    20    22    1
    15    22    23    1
    16    23    24    1
    17    24    26    1
    18    26    27   am
    19    27    28    2
    20    27    30    1
    21    30    31    1
    22    24    25    1
    23     5     6    2
    24     6     7    1
    25     7     8    1
    26     8     9    2
    27     9    10    1
    28    14    15    1
    29    15    16    1
    30    16    11    1
    31     9     1    1
    32     7     3    1
    33    25    20    1
    34    26    29    1
@<TRIPOS>MOLECULE
*****
 31 34 0 0 0
SMALL
GASTEIGER

@<TRIPOS>ATOM
      1 C         142.6745  142.2723  164.4530 C.2     1  UNL1        0.0596
      2 C         141.4179  142.8096  163.8346 C.2     1  UNL1        0.0324
      3 C         141.4590  143.4264  162.4679 C.2     1  UNL1        0.0889
      4 N         140.3907  144.0355  161.6091 N.2     1  UNL1       -0.2236
      5 C         141.0280  144.4915  160.3301 C.2     1  UNL1        0.1859
      6 N         142.4903  144.1642  160.3985 N.2     1  UNL1       -0.2387
      7 C         142.7567  143.5059  161.7197 C.3     1  UNL1        0.1679
      8 C         144.0132  142.9686  162.3382 C.2     1  UNL1        0.0164
      9 C         143.9720  142.3518  163.7048 C.2     1  UNL1        0.0690
     10 CL        145.2286  141.8145  164.3233 Cl      1  UNL1       -0.0812
     11 N         142.5511  140.4217  168.5531 N.3     1  UNL1       -0.2698
     12 C         142.2534  139.5858  167.3437 C.3     1  UNL1        0.0938
     13 C         142.2945  140.2026  165.9771 C.3     1  UNL1        0.1081
     14 N         142.6334  141.6554  165.8198 N.pl3   1  UNL1       -0.3040
     15 C         142.9310  142.4913  167.0292 C.3     1  UNL1        0.1081
     16 C         142.8899  141.8745  168.3958 C.3     1  UNL1        0.0938
     17 C         142.7602  138.3354  170.0873 C.3     1  UNL1        0.0188
     18 C         142.5100  139.8050  169.9198 C.3     1  UNL1        0.0722
     19 S         140.3264  145.1579  159.1840 S.3     1  UNL1       -0.0777
     20 C         140.5177  144.6454  157.7873 C.3     1  UNL1        0.0477
     21 C         141.4302  145.8276  157.6469 C.3     1  UNL1        0.0113
     22 C         140.8998  144.3800  156.3613 C.3     1  UNL1        0.0122
     23 C         140.1835  143.1409  155.9123 C.3     1  UNL1        0.0206
     24 C         139.3587  142.6405  157.0609 C.3     1  UNL1        0.0756
     25 C         139.5652  143.5702  158.2198 C.3     1  UNL1        0.0301
     26 N         138.4813  141.4238  157.0522 N.am    1  UNL1       -0.2723
     27 C         137.1002  141.4993  156.4718 C.2     1  UNL1        0.4017
     28 O         136.5965  142.7914  155.9001 O.2     1  UNL1       -0.2264
     29 H         138.8120  140.5758  157.4274 H       1  UNL1        0.1527
     30 O         136.2228  140.2826  156.4631 O.3     1  UNL1       -0.4306
     31 C         134.7318  140.4336  156.3985 C.3     1  UNL1        0.2573
@<TRIPOS>BOND
     1    17    18    1
     2    18    11    1
     3    11    12    1
     4    12    13    1
     5    13    14    1
     6    14     1    1
     7     1     2    2
     8     2     3    1
     9     3     4    2
    10     4     5    1
    11     5    19    1
    12    19    20    1
    13    20    21    1
    14    20    22    1
    15    22    23    1
    16    23    24    1
    17    24    26    1
    18    26    27   am
    19    27    28    2
    20    27    30    1
    21    30    31    1
    22    24    25    1
    23     5     6    2
    24     6     7    1
    25     7     8    1
    26     8     9    2
    27     9    10    1
    28    14    15    1
    29    15    16    1
    30    16    11    1
    31     9     1    1
    32     7     3    1
    33    25    20    1
    34    26    29    1
@<TRIPOS>MOLECULE
*****
 31 34 0 0 0
SMALL
GASTEIGER

@<TRIPOS>ATOM
      1 C         140.2166  143.1237  164.1463 C.2     1  UNL1        0.0596
      2 C         140.8760  142.6703  162.8775 C.2     1  UNL1        0.0324
      3 C         140.6795  143.4488  161.6105 C.2     1  UNL1        0.0889
      4 N         141.1982  143.2466  160.2177 N.2     1  UNL1       -0.2236
      5 C         140.6628  144.3535  159.3585 C.2     1  UNL1        0.1859
      6 N         139.8132  145.2398  160.2204 N.2     1  UNL1       -0.2387
      7 C         139.8236  144.6806  161.6123 C.3     1  UNL1        0.1679
      8 C         139.1642  145.1339  162.8810 C.2     1  UNL1        0.0164
      9 C         139.3608  144.3554  164.1480 C.2     1  UNL1        0.0690
     10 CL        138.7013  144.8089  165.4168 Cl      1  UNL1       -0.0812
     11 N         140.8063  140.7882  167.9474 N.3     1  UNL1       -0.2698
     12 C         141.7830  141.8612  167.5673 C.3     1  UNL1        0.0938
     13 C         141.5865  142.6397  166.3003 C.3     1  UNL1        0.1081
     14 N         140.4132  142.3452  165.4134 N.pl3   1  UNL1       -0.3040
     15 C         139.4364  141.2721  165.7935 C.3     1  UNL1        0.1081
     16 C         139.6329  140.4937  167.0605 C.3     1  UNL1        0.0938
     17 C         142.3198  139.3471  169.4910 C.3     1  UNL1        0.0188
     18 C         141.0027  140.0097  169.2144 C.3     1  UNL1        0.0722
     19 S         140.9300  144.5412  157.8945 S.3     1  UNL1       -0.0777
     20 C         139.7854  144.6520  156.9314 C.3     1  UNL1        0.0477
     21 C         140.2340  146.0778  156.8064 C.3     1  UNL1        0.0113
     22 C         138.7346  145.0608  155.9421 C.3     1  UNL1        0.0122
     23 C         137.8758  143.8644  155.6570 C.3     1  UNL1        0.0206
     24 C         138.3959  142.7162  156.4701 C.3     1  UNL1        0.0756
     25 C         139.5761  143.2029  157.2577 C.3     1  UNL1        0.0301
     26 N         137.8344  141.3254  156.4918 N.am    1  UNL1       -0.2723
     27 C         138.4610  140.2505  155.6540 C.2     1  UNL1        0.4017
     28 O         139.6490  140.5664  154.7944 O.2     1  UNL1       -0.2264
     29 H         137.0547  141.1181  157.0560 H       1  UNL1        0.1527
     30 O         137.8995  138.8597  155.6757 O.3     1  UNL1       -0.4306
     31 C         138.5555  137.7735  154.8758 C.3     1  UNL1        0.2573
@<TRIPOS>BOND
     1    17    18    1
     2    18    11    1
     3    11    12    1
     4    12    13    1
     5    13    14    1
     6    14     1    1
     7     1     2    2
     8     2     3    1
     9     3     4    2
    10     4     5    1
    11     5    19    1
    12    19    20    1
    13    20    21    1
    14    20    22    1
    15    22    23    1
    16    23    24    1
    17    24    26    1
    18    26    27   am
    19    27    28    2
    20    27    30    1
    21    30    31    1
    22    24    25    1
    23     5     6    2
    24     6     7    1
    25     7     8    1
    26     8     9    2
    27     9    10    1
    28    14    15    1
    29    15    16    1
    30    16    11    1
    31     9     1    1
    32     7     3    1
    33    25    20    1
    34    26    29    1
