@<TRIPOS>MOLECULE
*****
 41 47 0 0 0
SMALL
GASTEIGER

@<TRIPOS>ATOM
      1 C         137.7998  139.5141  162.0294 C.3     1  UNL1        0.0700
      2 C         137.7138  140.6656  162.9868 C.3     1  UNL1        0.0193
      3 C         138.3132  140.5483  164.3568 C.3     1  UNL1        0.0287
      4 C         138.9986  139.2795  164.7695 C.3     1  UNL1        0.0955
      5 C         139.0846  138.1279  163.8121 C.3     1  UNL1        0.0287
      6 C         138.4853  138.2452  162.4421 C.3     1  UNL1        0.0193
      7 O         138.6852  139.2967  164.0083 O.3     1  UNL1       -0.3571
      8 C         138.1432  139.4028  162.7695 C.3     1  UNL1        0.1562
      9 N         137.2005  139.6314  160.6594 N.3     1  UNL1       -0.2926
     10 H         136.9470  138.6876  160.3671 H       1  UNL1        0.1236
     11 C         137.9988  140.2314  159.5403 C.3     1  UNL1        0.1152
     12 O         141.6424  135.1010  154.9412 O.2     1  UNL1       -0.2707
     13 C         141.6921  136.1472  156.0149 C.2     1  UNL1        0.2718
     14 C         143.0060  136.5297  156.6292 C.3     1  UNL1        0.2898
     15 O         143.0557  137.5759  157.7029 O.3     1  UNL1       -0.4628
     16 C         141.7915  138.2398  158.1623 C.ar    1  UNL1        0.1708
     17 C         141.8412  139.2861  159.2360 C.ar    1  UNL1        0.0411
     18 C         140.5769  139.9500  159.6953 C.ar    1  UNL1        0.0193
     19 C         139.2630  139.5676  159.0810 C.ar    1  UNL1        0.0765
     20 N         139.2134  138.5212  158.0073 N.ar    1  UNL1       -0.2304
     21 C         140.4776  137.8574  157.5479 C.ar    1  UNL1        0.1682
     22 N         140.4279  136.8111  156.4742 N.am    1  UNL1       -0.2639
     23 H         139.5655  136.5601  156.0710 H       1  UNL1        0.1565
     24 C         139.5980  139.1622  166.1395 C.3     1  UNL1        0.0604
     25 C         140.7492  140.0400  166.5322 C.3     1  UNL1        0.1335
     26 O         141.2485  139.7350  165.1510 O.3     1  UNL1       -0.3806
     27 C         142.0049  140.8540  166.6361 C.3     1  UNL1        0.1402
     28 N         142.0409  141.4785  167.9994 N.ar    1  UNL1       -0.2896
     29 C         142.8532  142.3731  168.8995 C.ar    1  UNL1        0.2886
     30 O         144.1255  142.8820  168.2896 O.2     1  UNL1       -0.2645
     31 C         142.4831  142.7653  170.2992 C.ar    1  UNL1        0.1974
     32 F         143.3855  143.6663  171.0891 F       1  UNL1       -0.1991
     33 C         141.2107  142.2564  170.9092 C.ar    1  UNL1        0.0551
     34 C         140.3083  141.3553  170.1193 C.ar    1  UNL1        0.0994
     35 N         139.0107  140.7712  170.5937 N.ar    1  UNL1       -0.2400
     36 C         138.2125  139.8821  169.6869 C.ar    1  UNL1        0.1282
     37 C         138.7117  139.5772  168.3057 C.ar    1  UNL1        0.1588
     38 F         137.9134  138.6881  167.3989 F       1  UNL1       -0.2027
     39 C         140.0093  140.1613  167.8313 C.ar    1  UNL1        0.0500
     40 C         140.8076  141.0504  168.7381 C.ar    1  UNL1        0.0807
     41 H         142.0939  140.1879  165.0054 H       1  UNL1        0.2108
@<TRIPOS>BOND
     1    12    13    2
     2    13    14    1
     3    14    15    1
     4    15    16    1
     5    16    17   ar
     6    17    18   ar
     7    18    19   ar
     8    19    11    1
     9    11     9    1
    10     9     1    1
    11     1     2    1
    12     2     3    1
    13     3     4    1
    14     4    24    1
    15    24    25    1
    16    25    26    1
    17    25    27    1
    18    27    28    1
    19    28    29   ar
    20    29    30    2
    21    29    31   ar
    22    31    32    1
    23    31    33   ar
    24    33    34   ar
    25    34    35   ar
    26    35    36   ar
    27    36    37   ar
    28    37    38    1
    29    37    39   ar
    30    39    40   ar
    31     4     5    1
    32     5     6    1
    33     4     7    1
    34     7     8    1
    35    19    20   ar
    36    20    21   ar
    37    21    22    1
    38    22    13   am
    39    21    16   ar
    40     6     1    1
    41     8     1    1
    42    39    25    1
    43    40    28   ar
    44    40    34   ar
    45     9    10    1
    46    26    41    1
    47    22    23    1
@<TRIPOS>MOLECULE
*****
 41 47 0 0 0
SMALL
GASTEIGER

@<TRIPOS>ATOM
      1 C         137.7614  139.4958  162.0743 C.3     1  UNL1        0.0700
      2 C         137.6608  140.6380  163.0415 C.3     1  UNL1        0.0193
      3 C         138.2746  140.5224  164.4052 C.3     1  UNL1        0.0287
      4 C         138.9891  139.2644  164.8019 C.3     1  UNL1        0.0955
      5 C         139.0897  138.1223  163.8348 C.3     1  UNL1        0.0287
      6 C         138.4759  138.2379  162.4711 C.3     1  UNL1        0.0193
      7 O         138.6686  139.2812  164.0436 O.3     1  UNL1       -0.3571
      8 C         138.1136  139.3859  162.8105 C.3     1  UNL1        0.1562
      9 N         137.1476  139.6115  160.7106 N.3     1  UNL1       -0.2926
     10 H         136.9265  138.6635  160.4059 H       1  UNL1        0.1236
     11 C         137.9150  140.2569  159.5951 C.3     1  UNL1        0.1152
     12 O         143.9385  144.5016  162.1349 O.2     1  UNL1       -0.2707
     13 C         143.4105  143.2944  161.4179 C.2     1  UNL1        0.2718
     14 C         144.3625  142.2949  160.8306 C.3     1  UNL1        0.2898
     15 O         143.8345  141.0878  160.1136 O.3     1  UNL1       -0.4628
     16 C         142.3547  140.8801  159.9840 C.ar    1  UNL1        0.1708
     17 C         141.8266  139.6729  159.2670 C.ar    1  UNL1        0.0411
     18 C         140.3467  139.4652  159.1374 C.ar    1  UNL1        0.0193
     19 C         139.3948  140.4646  159.7247 C.ar    1  UNL1        0.0765
     20 N         139.9229  141.6718  160.4417 N.ar    1  UNL1       -0.2304
     21 C         141.4027  141.8795  160.5713 C.ar    1  UNL1        0.1682
     22 N         141.9307  143.0867  161.2883 N.am    1  UNL1       -0.2639
     23 H         141.3059  143.7427  161.6737 H       1  UNL1        0.1565
     24 C         139.6028  139.1488  166.1657 C.3     1  UNL1        0.0604
     25 C         140.7597  140.0254  166.5443 C.3     1  UNL1        0.1335
     26 O         141.2606  139.6891  165.1710 O.3     1  UNL1       -0.3806
     27 C         142.0212  140.8317  166.6358 C.3     1  UNL1        0.1402
     28 N         142.0581  141.4830  167.9865 N.ar    1  UNL1       -0.2896
     29 C         142.8746  142.3891  168.8711 C.ar    1  UNL1        0.2886
     30 O         144.1526  142.8760  168.2552 O.2     1  UNL1       -0.2645
     31 C         142.5034  142.8120  170.2616 C.ar    1  UNL1        0.1974
     32 F         143.4104  143.7217  171.0361 F       1  UNL1       -0.1991
     33 C         141.2254  142.3251  170.8776 C.ar    1  UNL1        0.0551
     34 C         140.3183  141.4154  170.1031 C.ar    1  UNL1        0.0994
     35 N         139.0149  140.8508  170.5851 N.ar    1  UNL1       -0.2400
     36 C         138.2125  139.9500  169.6937 C.ar    1  UNL1        0.1282
     37 C         138.7134  139.6137  168.3204 C.ar    1  UNL1        0.1588
     38 F         137.9109  138.7129  167.4290 F       1  UNL1       -0.2027
     39 C         140.0169  140.1783  167.8385 C.ar    1  UNL1        0.0500
     40 C         140.8193  141.0792  168.7298 C.ar    1  UNL1        0.0807
     41 H         142.1099  140.1325  165.0191 H       1  UNL1        0.2108
@<TRIPOS>BOND
     1    12    13    2
     2    13    14    1
     3    14    15    1
     4    15    16    1
     5    16    17   ar
     6    17    18   ar
     7    18    19   ar
     8    19    11    1
     9    11     9    1
    10     9     1    1
    11     1     2    1
    12     2     3    1
    13     3     4    1
    14     4    24    1
    15    24    25    1
    16    25    26    1
    17    25    27    1
    18    27    28    1
    19    28    29   ar
    20    29    30    2
    21    29    31   ar
    22    31    32    1
    23    31    33   ar
    24    33    34   ar
    25    34    35   ar
    26    35    36   ar
    27    36    37   ar
    28    37    38    1
    29    37    39   ar
    30    39    40   ar
    31     4     5    1
    32     5     6    1
    33     4     7    1
    34     7     8    1
    35    19    20   ar
    36    20    21   ar
    37    21    22    1
    38    22    13   am
    39    21    16   ar
    40     6     1    1
    41     8     1    1
    42    39    25    1
    43    40    28   ar
    44    40    34   ar
    45     9    10    1
    46    26    41    1
    47    22    23    1
@<TRIPOS>MOLECULE
*****
 41 47 0 0 0
SMALL
GASTEIGER

@<TRIPOS>ATOM
      1 C         138.1354  139.6658  160.9342 C.3     1  UNL1        0.0700
      2 C         138.5935  138.2867  161.3060 C.3     1  UNL1        0.0193
      3 C         139.3631  138.0686  162.5749 C.3     1  UNL1        0.0287
      4 C         139.6747  139.2297  163.4721 C.3     1  UNL1        0.0955
      5 C         139.2166  140.6088  163.1003 C.3     1  UNL1        0.0287
      6 C         138.4470  140.8269  161.8314 C.3     1  UNL1        0.0193
      7 O         139.2502  139.3985  162.7870 O.3     1  UNL1       -0.3571
      8 C         138.5543  139.5956  161.6396 C.3     1  UNL1        0.1562
      9 N         137.3658  139.8838  159.6653 N.3     1  UNL1       -0.2926
     10 H         136.8901  139.0064  159.4550 H       1  UNL1        0.1236
     11 C         138.0831  140.2981  158.4148 C.3     1  UNL1        0.1152
     12 O         142.0720  134.3960  155.2519 O.2     1  UNL1       -0.2707
     13 C         142.0514  135.7255  155.9462 C.2     1  UNL1        0.2718
     14 C         143.3398  136.4172  156.2804 C.3     1  UNL1        0.2898
     15 O         143.3192  137.7467  156.9746 O.3     1  UNL1       -0.4628
     16 C         142.0102  138.3845  157.3347 C.ar    1  UNL1        0.1708
     17 C         141.9895  139.7141  158.0289 C.ar    1  UNL1        0.0411
     18 C         140.6804  140.3519  158.3890 C.ar    1  UNL1        0.0193
     19 C         139.3921  139.6602  158.0548 C.ar    1  UNL1        0.0765
     20 N         139.4128  138.3307  157.3605 N.ar    1  UNL1       -0.2304
     21 C         140.7218  137.6928  157.0005 C.ar    1  UNL1        0.1682
     22 N         140.7424  136.3633  156.3062 N.am    1  UNL1       -0.2639
     23 H         139.8968  135.9094  156.0869 H       1  UNL1        0.1565
     24 C         140.4444  139.0117  164.7410 C.3     1  UNL1        0.0604
     25 C         139.8036  139.3013  166.0660 C.3     1  UNL1        0.1335
     26 O         138.7506  138.3459  165.5881 O.3     1  UNL1       -0.3806
     27 C         138.9428  139.3912  167.2911 C.3     1  UNL1        0.1402
     28 N         139.5977  140.3415  168.2491 N.ar    1  UNL1       -0.2896
     29 C         139.4570  140.9800  169.6066 C.ar    1  UNL1        0.2886
     30 O         138.2273  140.5728  170.3629 O.2     1  UNL1       -0.2645
     31 C         140.4254  141.9500  170.2159 C.ar    1  UNL1        0.1974
     32 F         140.1640  142.5129  171.5815 F       1  UNL1       -0.1991
     33 C         141.6551  142.3572  169.4596 C.ar    1  UNL1        0.0551
     34 C         141.9165  141.7943  168.0939 C.ar    1  UNL1        0.0994
     35 N         143.0968  142.1068  167.2226 N.ar    1  UNL1       -0.2400
     36 C         143.2240  141.4639  165.8734 C.ar    1  UNL1        0.1282
     37 C         142.1709  140.5085  165.3955 C.ar    1  UNL1        0.1588
     38 F         142.2982  139.8656  164.0462 F       1  UNL1       -0.2027
     39 C         140.9906  140.1961  166.2668 C.ar    1  UNL1        0.0500
     40 C         140.8634  140.8390  167.6160 C.ar    1  UNL1        0.0807
     41 H         138.0633  138.2563  166.2667 H       1  UNL1        0.2108
@<TRIPOS>BOND
     1    12    13    2
     2    13    14    1
     3    14    15    1
     4    15    16    1
     5    16    17   ar
     6    17    18   ar
     7    18    19   ar
     8    19    11    1
     9    11     9    1
    10     9     1    1
    11     1     2    1
    12     2     3    1
    13     3     4    1
    14     4    24    1
    15    24    25    1
    16    25    26    1
    17    25    27    1
    18    27    28    1
    19    28    29   ar
    20    29    30    2
    21    29    31   ar
    22    31    32    1
    23    31    33   ar
    24    33    34   ar
    25    34    35   ar
    26    35    36   ar
    27    36    37   ar
    28    37    38    1
    29    37    39   ar
    30    39    40   ar
    31     4     5    1
    32     5     6    1
    33     4     7    1
    34     7     8    1
    35    19    20   ar
    36    20    21   ar
    37    21    22    1
    38    22    13   am
    39    21    16   ar
    40     6     1    1
    41     8     1    1
    42    39    25    1
    43    40    28   ar
    44    40    34   ar
    45     9    10    1
    46    26    41    1
    47    22    23    1
@<TRIPOS>MOLECULE
*****
 41 47 0 0 0
SMALL
GASTEIGER

@<TRIPOS>ATOM
      1 C         143.1988  139.3778  159.9648 C.3     1  UNL1        0.0700
      2 C         143.6209  138.1491  160.7145 C.3     1  UNL1        0.0193
      3 C         143.1054  137.9027  162.1014 C.3     1  UNL1        0.0287
      4 C         142.1677  138.8850  162.7387 C.3     1  UNL1        0.0955
      5 C         141.7457  140.1138  161.9889 C.3     1  UNL1        0.0287
      6 C         142.2611  140.3602  160.6020 C.3     1  UNL1        0.0193
      7 O         142.4238  139.0630  161.9766 O.3     1  UNL1       -0.3571
      8 C         142.8899  139.2857  160.7225 C.3     1  UNL1        0.1562
      9 N         143.7143  139.6242  158.5779 N.3     1  UNL1       -0.2926
     10 H         144.0681  140.5807  158.5609 H       1  UNL1        0.1236
     11 C         142.7965  139.4810  157.4002 C.3     1  UNL1        0.1152
     12 O         144.7760  132.0810  155.9613 O.2     1  UNL1       -0.2707
     13 C         143.7593  133.1833  155.9297 C.2     1  UNL1        0.2718
     14 C         142.3857  132.9215  155.3868 C.3     1  UNL1        0.2898
     15 O         141.3690  134.0239  155.3552 O.3     1  UNL1       -0.4628
     16 C         141.7259  135.3881  155.8664 C.ar    1  UNL1        0.1708
     17 C         140.7091  136.4906  155.8348 C.ar    1  UNL1        0.0411
     18 C         141.0661  137.8549  156.3461 C.ar    1  UNL1        0.0193
     19 C         142.4396  138.1167  156.8889 C.ar    1  UNL1        0.0765
     20 N         143.4564  137.0143  156.9205 N.ar    1  UNL1       -0.2304
     21 C         143.0995  135.6500  156.4093 C.ar    1  UNL1        0.1682
     22 N         144.1162  134.5476  156.4409 N.am    1  UNL1       -0.2639
     23 H         145.0177  134.7195  156.7972 H       1  UNL1        0.1565
     24 C         141.6523  138.6386  164.1256 C.3     1  UNL1        0.0604
     25 C         142.1287  139.4899  165.2650 C.3     1  UNL1        0.1335
     26 O         143.3920  139.5821  164.4616 O.3     1  UNL1       -0.3806
     27 C         142.8692  140.3605  166.2366 C.3     1  UNL1        0.1402
     28 N         141.9640  140.6283  167.4022 N.ar    1  UNL1       -0.2896
     29 C         141.8757  141.3401  168.7272 C.ar    1  UNL1        0.2886
     30 O         143.1132  142.0946  169.1136 O.2     1  UNL1       -0.2645
     31 C         140.6833  141.3389  169.6373 C.ar    1  UNL1        0.1974
     32 F         140.7284  142.0922  170.9336 F       1  UNL1       -0.1991
     33 C         139.4458  140.5844  169.2510 C.ar    1  UNL1        0.0551
     34 C         139.4006  139.8311  167.9546 C.ar    1  UNL1        0.0994
     35 N         138.2392  139.0353  167.4372 N.ar    1  UNL1       -0.2400
     36 C         138.3410  138.3318  166.1164 C.ar    1  UNL1        0.1282
     37 C         139.6043  138.4240  165.3129 C.ar    1  UNL1        0.1588
     38 F         139.7061  137.7204  163.9920 F       1  UNL1       -0.2027
     39 C         140.7658  139.2197  165.8303 C.ar    1  UNL1        0.0500
     40 C         140.6639  139.9233  167.1511 C.ar    1  UNL1        0.0807
     41 H         144.0373  140.1298  164.9354 H       1  UNL1        0.2108
@<TRIPOS>BOND
     1    12    13    2
     2    13    14    1
     3    14    15    1
     4    15    16    1
     5    16    17   ar
     6    17    18   ar
     7    18    19   ar
     8    19    11    1
     9    11     9    1
    10     9     1    1
    11     1     2    1
    12     2     3    1
    13     3     4    1
    14     4    24    1
    15    24    25    1
    16    25    26    1
    17    25    27    1
    18    27    28    1
    19    28    29   ar
    20    29    30    2
    21    29    31   ar
    22    31    32    1
    23    31    33   ar
    24    33    34   ar
    25    34    35   ar
    26    35    36   ar
    27    36    37   ar
    28    37    38    1
    29    37    39   ar
    30    39    40   ar
    31     4     5    1
    32     5     6    1
    33     4     7    1
    34     7     8    1
    35    19    20   ar
    36    20    21   ar
    37    21    22    1
    38    22    13   am
    39    21    16   ar
    40     6     1    1
    41     8     1    1
    42    39    25    1
    43    40    28   ar
    44    40    34   ar
    45     9    10    1
    46    26    41    1
    47    22    23    1
@<TRIPOS>MOLECULE
*****
 41 47 0 0 0
SMALL
GASTEIGER

@<TRIPOS>ATOM
      1 C         142.0227  138.3121  159.2217 C.3     1  UNL1        0.0700
      2 C         142.9848  137.4085  159.9344 C.3     1  UNL1        0.0193
      3 C         143.3451  137.6761  161.3657 C.3     1  UNL1        0.0287
      4 C         142.7434  138.8474  162.0843 C.3     1  UNL1        0.0955
      5 C         141.7813  139.7509  161.3715 C.3     1  UNL1        0.0287
      6 C         141.4210  139.4833  159.9402 C.3     1  UNL1        0.0193
      7 O         142.5156  138.7410  161.3001 O.3     1  UNL1       -0.3571
      8 C         142.1898  138.4990  160.0060 C.3     1  UNL1        0.1562
      9 N         141.6624  138.0445  157.7904 N.3     1  UNL1       -0.2926
     10 H         140.8242  137.4634  157.8015 H       1  UNL1        0.1236
     11 C         142.6466  137.3675  156.8832 C.3     1  UNL1        0.1152
     12 O         144.7657  130.0046  158.3138 O.2     1  UNL1       -0.2707
     13 C         143.9312  130.9917  157.5527 C.2     1  UNL1        0.2718
     14 C         142.9685  130.5115  156.5073 C.3     1  UNL1        0.2898
     15 O         142.1340  131.4986  155.7462 O.3     1  UNL1       -0.4628
     16 C         142.2622  132.9658  156.0304 C.ar    1  UNL1        0.1708
     17 C         141.4277  133.9529  155.2693 C.ar    1  UNL1        0.0411
     18 C         141.5559  135.4202  155.5536 C.ar    1  UNL1        0.0193
     19 C         142.5184  135.9003  156.5989 C.ar    1  UNL1        0.0765
     20 N         143.3530  134.9132  157.3601 N.ar    1  UNL1       -0.2304
     21 C         143.2248  133.4460  157.0758 C.ar    1  UNL1        0.1682
     22 N         144.0593  132.4589  157.8370 N.am    1  UNL1       -0.2639
     23 H         144.6911  132.7741  158.5231 H       1  UNL1        0.1565
     24 C         143.1037  139.1150  163.5155 C.3     1  UNL1        0.0604
     25 C         142.0458  139.0623  164.5777 C.3     1  UNL1        0.1335
     26 O         141.6399  137.7930  163.8891 O.3     1  UNL1       -0.3806
     27 C         140.9031  138.7443  165.4959 C.3     1  UNL1        0.1402
     28 N         140.8239  139.8280  166.5299 N.ar    1  UNL1       -0.2896
     29 C         140.0564  140.2914  167.7408 C.ar    1  UNL1        0.2886
     30 O         138.9228  139.3947  168.1416 O.2     1  UNL1       -0.2645
     31 C         140.3444  141.5343  168.5298 C.ar    1  UNL1        0.1974
     32 F         139.4989  141.8803  169.7194 F       1  UNL1       -0.1991
     33 C         141.4781  142.4311  168.1290 C.ar    1  UNL1        0.0551
     34 C         142.3237  142.0851  166.9394 C.ar    1  UNL1        0.0994
     35 N         143.4847  142.8811  166.4214 N.ar    1  UNL1       -0.2400
     36 C         144.2399  142.4079  165.2149 C.ar    1  UNL1        0.1282
     37 C         143.8340  141.1386  164.5263 C.ar    1  UNL1        0.1588
     38 F         144.5892  140.6653  163.3197 F       1  UNL1       -0.2027
     39 C         142.6729  140.3426  165.0442 C.ar    1  UNL1        0.0500
     40 C         141.9178  140.8158  166.2508 C.ar    1  UNL1        0.0807
     41 H         140.8779  137.4058  164.3477 H       1  UNL1        0.2108
@<TRIPOS>BOND
     1    12    13    2
     2    13    14    1
     3    14    15    1
     4    15    16    1
     5    16    17   ar
     6    17    18   ar
     7    18    19   ar
     8    19    11    1
     9    11     9    1
    10     9     1    1
    11     1     2    1
    12     2     3    1
    13     3     4    1
    14     4    24    1
    15    24    25    1
    16    25    26    1
    17    25    27    1
    18    27    28    1
    19    28    29   ar
    20    29    30    2
    21    29    31   ar
    22    31    32    1
    23    31    33   ar
    24    33    34   ar
    25    34    35   ar
    26    35    36   ar
    27    36    37   ar
    28    37    38    1
    29    37    39   ar
    30    39    40   ar
    31     4     5    1
    32     5     6    1
    33     4     7    1
    34     7     8    1
    35    19    20   ar
    36    20    21   ar
    37    21    22    1
    38    22    13   am
    39    21    16   ar
    40     6     1    1
    41     8     1    1
    42    39    25    1
    43    40    28   ar
    44    40    34   ar
    45     9    10    1
    46    26    41    1
    47    22    23    1
@<TRIPOS>MOLECULE
*****
 41 47 0 0 0
SMALL
GASTEIGER

@<TRIPOS>ATOM
      1 C         143.4351  144.4573  163.7428 C.3     1  UNL1        0.0700
      2 C         143.6814  143.7862  162.4241 C.3     1  UNL1        0.0193
      3 C         142.6932  143.9429  161.3066 C.3     1  UNL1        0.0287
      4 C         141.4585  144.7707  161.5079 C.3     1  UNL1        0.0955
      5 C         141.2121  145.4418  162.8266 C.3     1  UNL1        0.0287
      6 C         142.2004  145.2851  163.9441 C.3     1  UNL1        0.0193
      7 O         141.9712  144.7140  162.1497 O.3     1  UNL1       -0.3571
      8 C         142.8649  144.5722  163.1601 C.3     1  UNL1        0.1562
      9 N         144.4234  144.3006  164.8603 N.3     1  UNL1       -0.2926
     10 H         145.3445  144.4964  164.4683 H       1  UNL1        0.1236
     11 C         144.5315  142.9935  165.5881 C.3     1  UNL1        0.1152
     12 O         140.4393  142.1318  172.1654 O.2     1  UNL1       -0.2707
     13 C         140.6141  141.8646  170.6998 C.2     1  UNL1        0.2718
     14 C         139.5995  141.0432  169.9609 C.3     1  UNL1        0.2898
     15 O         139.7742  140.7761  168.4953 O.3     1  UNL1       -0.4628
     16 C         140.9635  141.3304  167.7685 C.ar    1  UNL1        0.1708
     17 C         141.1383  141.0634  166.3028 C.ar    1  UNL1        0.0411
     18 C         142.3277  141.6178  165.5761 C.ar    1  UNL1        0.0193
     19 C         143.3422  142.4392  166.3149 C.ar    1  UNL1        0.0765
     20 N         143.1674  142.7063  167.7806 N.ar    1  UNL1       -0.2304
     21 C         141.9781  142.1519  168.5074 C.ar    1  UNL1        0.1682
     22 N         141.8034  142.4190  169.9730 N.am    1  UNL1       -0.2639
     23 H         142.4693  142.9582  170.4580 H       1  UNL1        0.1565
     24 C         140.4702  144.9274  160.3904 C.3     1  UNL1        0.0604
     25 C         139.6057  143.7703  159.9859 C.3     1  UNL1        0.1335
     26 O         139.4495  143.5733  161.4647 O.3     1  UNL1       -0.3806
     27 C         138.7085  142.5719  159.8906 C.3     1  UNL1        0.1402
     28 N         138.4910  142.2701  158.4375 N.ar    1  UNL1       -0.2896
     29 C         137.7932  141.3313  157.4878 C.ar    1  UNL1        0.2886
     30 O         136.9849  140.2575  158.1537 O.2     1  UNL1       -0.2645
     31 C         137.8560  141.4034  155.9909 C.ar    1  UNL1        0.1974
     32 F         137.1104  140.4016  155.1599 F       1  UNL1       -0.1991
     33 C         138.6643  142.4772  155.3249 C.ar    1  UNL1        0.0551
     34 C         139.4099  143.4791  156.1560 C.ar    1  UNL1        0.0994
     35 N         140.2550  144.6031  155.6342 N.ar    1  UNL1       -0.2400
     36 C         140.9439  145.5302  156.5912 C.ar    1  UNL1        0.1282
     37 C         140.7877  145.3332  158.0699 C.ar    1  UNL1        0.1588
     38 F         141.4766  146.2604  159.0270 F       1  UNL1       -0.2027
     39 C         139.9426  144.2092  158.5917 C.ar    1  UNL1        0.0500
     40 C         139.2537  143.2821  157.6347 C.ar    1  UNL1        0.0807
     41 H         138.8759  142.8088  161.6303 H       1  UNL1        0.2108
@<TRIPOS>BOND
     1    12    13    2
     2    13    14    1
     3    14    15    1
     4    15    16    1
     5    16    17   ar
     6    17    18   ar
     7    18    19   ar
     8    19    11    1
     9    11     9    1
    10     9     1    1
    11     1     2    1
    12     2     3    1
    13     3     4    1
    14     4    24    1
    15    24    25    1
    16    25    26    1
    17    25    27    1
    18    27    28    1
    19    28    29   ar
    20    29    30    2
    21    29    31   ar
    22    31    32    1
    23    31    33   ar
    24    33    34   ar
    25    34    35   ar
    26    35    36   ar
    27    36    37   ar
    28    37    38    1
    29    37    39   ar
    30    39    40   ar
    31     4     5    1
    32     5     6    1
    33     4     7    1
    34     7     8    1
    35    19    20   ar
    36    20    21   ar
    37    21    22    1
    38    22    13   am
    39    21    16   ar
    40     6     1    1
    41     8     1    1
    42    39    25    1
    43    40    28   ar
    44    40    34   ar
    45     9    10    1
    46    26    41    1
    47    22    23    1
@<TRIPOS>MOLECULE
*****
 41 47 0 0 0
SMALL
GASTEIGER

@<TRIPOS>ATOM
      1 C         144.5188  142.7494  161.6052 C.3     1  UNL1        0.0700
      2 C         144.3374  142.4285  160.1511 C.3     1  UNL1        0.0193
      3 C         143.1964  143.0316  159.3867 C.3     1  UNL1        0.0287
      4 C         142.2367  143.9555  160.0762 C.3     1  UNL1        0.0955
      5 C         142.4181  144.2764  161.5302 C.3     1  UNL1        0.0287
      6 C         143.5591  143.6734  162.2947 C.3     1  UNL1        0.0193
      7 O         142.8468  143.6493  160.5367 O.3     1  UNL1       -0.3571
      8 C         143.8786  143.1040  161.2279 C.3     1  UNL1        0.1562
      9 N         145.6598  142.1464  162.3696 N.3     1  UNL1       -0.2926
     10 H         146.3274  141.8022  161.6795 H       1  UNL1        0.1236
     11 C         145.4085  141.0203  163.3280 C.3     1  UNL1        0.1152
     12 O         138.2412  138.6809  165.3047 O.2     1  UNL1       -0.2707
     13 C         139.4588  138.5470  164.4389 C.2     1  UNL1        0.2718
     14 C         139.5049  137.4995  163.3663 C.3     1  UNL1        0.2898
     15 O         140.7225  137.3656  162.5005 O.3     1  UNL1       -0.4628
     16 C         141.8940  138.2793  162.7074 C.ar    1  UNL1        0.1708
     17 C         143.1117  138.1454  161.8416 C.ar    1  UNL1        0.0411
     18 C         144.2832  139.0591  162.0486 C.ar    1  UNL1        0.0193
     19 C         144.2370  140.1066  163.1212 C.ar    1  UNL1        0.0765
     20 N         143.0194  140.2405  163.9869 N.ar    1  UNL1       -0.2304
     21 C         141.8479  139.3268  163.7800 C.ar    1  UNL1        0.1682
     22 N         140.6303  139.4607  164.6458 N.am    1  UNL1       -0.2639
     23 H         140.6000  140.1483  165.3498 H       1  UNL1        0.1565
     24 C         141.0957  144.5586  159.3117 C.3     1  UNL1        0.0604
     25 C         139.9666  143.6906  158.8408 C.3     1  UNL1        0.1335
     26 O         140.1486  143.0071  160.1635 O.3     1  UNL1       -0.3806
     27 C         138.8755  142.6798  158.6463 C.3     1  UNL1        0.1402
     28 N         138.2553  142.9200  157.3019 N.ar    1  UNL1       -0.2896
     29 C         137.1889  142.4310  156.3564 C.ar    1  UNL1        0.2886
     30 O         136.3929  141.2652  156.8632 O.2     1  UNL1       -0.2645
     31 C         136.8913  143.0121  155.0059 C.ar    1  UNL1        0.1974
     32 F         135.7976  142.4272  154.1623 F       1  UNL1       -0.1991
     33 C         137.6873  144.1780  154.4990 C.ar    1  UNL1        0.0551
     34 C         138.7811  144.7629  155.3427 C.ar    1  UNL1        0.0994
     35 N         139.6568  145.9227  154.9710 N.ar    1  UNL1       -0.2400
     36 C         140.7144  146.3989  155.9221 C.ar    1  UNL1        0.1282
     37 C         140.8964  145.7153  157.2448 C.ar    1  UNL1        0.1588
     38 F         141.9540  146.1916  158.1959 F       1  UNL1       -0.2027
     39 C         140.0207  144.5556  157.6165 C.ar    1  UNL1        0.0500
     40 C         138.9631  144.0794  156.6654 C.ar    1  UNL1        0.0807
     41 H         139.5072  142.2839  160.2447 H       1  UNL1        0.2108
@<TRIPOS>BOND
     1    12    13    2
     2    13    14    1
     3    14    15    1
     4    15    16    1
     5    16    17   ar
     6    17    18   ar
     7    18    19   ar
     8    19    11    1
     9    11     9    1
    10     9     1    1
    11     1     2    1
    12     2     3    1
    13     3     4    1
    14     4    24    1
    15    24    25    1
    16    25    26    1
    17    25    27    1
    18    27    28    1
    19    28    29   ar
    20    29    30    2
    21    29    31   ar
    22    31    32    1
    23    31    33   ar
    24    33    34   ar
    25    34    35   ar
    26    35    36   ar
    27    36    37   ar
    28    37    38    1
    29    37    39   ar
    30    39    40   ar
    31     4     5    1
    32     5     6    1
    33     4     7    1
    34     7     8    1
    35    19    20   ar
    36    20    21   ar
    37    21    22    1
    38    22    13   am
    39    21    16   ar
    40     6     1    1
    41     8     1    1
    42    39    25    1
    43    40    28   ar
    44    40    34   ar
    45     9    10    1
    46    26    41    1
    47    22    23    1
@<TRIPOS>MOLECULE
*****
 41 47 0 0 0
SMALL
GASTEIGER

@<TRIPOS>ATOM
      1 C         141.1821  138.9765  158.1480 C.3     1  UNL1        0.0700
      2 C         139.9271  138.2137  158.4533 C.3     1  UNL1        0.0193
      3 C         139.4940  138.0211  159.8764 C.3     1  UNL1        0.0287
      4 C         140.3158  138.5913  160.9943 C.3     1  UNL1        0.0955
      5 C         141.5707  139.3541  160.6890 C.3     1  UNL1        0.0287
      6 C         142.0039  139.5468  159.2659 C.3     1  UNL1        0.0193
      7 O         140.5935  138.7227  160.2303 O.3     1  UNL1       -0.3571
      8 C         140.9851  138.8969  158.9434 C.3     1  UNL1        0.1562
      9 N         141.6152  139.1692  156.7249 N.3     1  UNL1       -0.2926
     10 H         140.7922  139.0131  156.1429 H       1  UNL1        0.1236
     11 C         142.7153  138.3238  156.1548 C.3     1  UNL1        0.1152
     12 O         145.2382  131.2174  158.1255 O.2     1  UNL1       -0.2707
     13 C         144.2477  132.0945  157.4186 C.2     1  UNL1        0.2718
     14 C         143.1078  131.4800  156.6617 C.3     1  UNL1        0.2898
     15 O         142.1173  132.3571  155.9548 O.3     1  UNL1       -0.4628
     16 C         142.2669  133.8487  156.0048 C.ar    1  UNL1        0.1708
     17 C         141.2764  134.7259  155.2979 C.ar    1  UNL1        0.0411
     18 C         141.4260  136.2176  155.3479 C.ar    1  UNL1        0.0193
     19 C         142.5658  136.8322  156.1048 C.ar    1  UNL1        0.0765
     20 N         143.5563  135.9550  156.8117 N.ar    1  UNL1       -0.2304
     21 C         143.4068  134.4633  156.7617 C.ar    1  UNL1        0.1682
     22 N         144.3972  133.5862  157.4686 N.am    1  UNL1       -0.2639
     23 H         145.1454  133.9896  157.9653 H       1  UNL1        0.1565
     24 C         139.8826  138.3987  162.4174 C.3     1  UNL1        0.0604
     25 C         140.9088  138.2029  163.4937 C.3     1  UNL1        0.1335
     26 O         141.3729  137.0701  162.6268 O.3     1  UNL1       -0.3806
     27 C         142.0321  137.7703  164.3889 C.3     1  UNL1        0.1402
     28 N         142.0477  138.6766  165.5840 N.ar    1  UNL1       -0.2896
     29 C         142.7641  138.9592  166.8790 C.ar    1  UNL1        0.2886
     30 O         143.9110  138.0379  167.1714 O.2     1  UNL1       -0.2645
     31 C         142.4155  140.0528  167.8448 C.ar    1  UNL1        0.1974
     32 F         143.2140  140.2249  169.1029 F       1  UNL1       -0.1991
     33 C         141.2685  140.9742  167.5525 C.ar    1  UNL1        0.0551
     34 C         140.4700  140.8021  166.2944 C.ar    1  UNL1        0.0994
     35 N         139.3022  141.6420  165.8695 N.ar    1  UNL1       -0.2400
     36 C         138.5984  141.3492  164.5777 C.ar    1  UNL1        0.1282
     37 C         139.0624  140.2165  163.7107 C.ar    1  UNL1        0.1588
     38 F         138.3585  139.9237  162.4188 F       1  UNL1       -0.2027
     39 C         140.2302  139.3765  164.1356 C.ar    1  UNL1        0.0500
     40 C         140.9341  139.6693  165.4275 C.ar    1  UNL1        0.0807
     41 H         142.1317  136.6334  163.0443 H       1  UNL1        0.2108
@<TRIPOS>BOND
     1    12    13    2
     2    13    14    1
     3    14    15    1
     4    15    16    1
     5    16    17   ar
     6    17    18   ar
     7    18    19   ar
     8    19    11    1
     9    11     9    1
    10     9     1    1
    11     1     2    1
    12     2     3    1
    13     3     4    1
    14     4    24    1
    15    24    25    1
    16    25    26    1
    17    25    27    1
    18    27    28    1
    19    28    29   ar
    20    29    30    2
    21    29    31   ar
    22    31    32    1
    23    31    33   ar
    24    33    34   ar
    25    34    35   ar
    26    35    36   ar
    27    36    37   ar
    28    37    38    1
    29    37    39   ar
    30    39    40   ar
    31     4     5    1
    32     5     6    1
    33     4     7    1
    34     7     8    1
    35    19    20   ar
    36    20    21   ar
    37    21    22    1
    38    22    13   am
    39    21    16   ar
    40     6     1    1
    41     8     1    1
    42    39    25    1
    43    40    28   ar
    44    40    34   ar
    45     9    10    1
    46    26    41    1
    47    22    23    1
@<TRIPOS>MOLECULE
*****
 41 47 0 0 0
SMALL
GASTEIGER

@<TRIPOS>ATOM
      1 C         144.7394  142.5971  162.3045 C.3     1  UNL1        0.0700
      2 C         145.1594  141.3097  162.9496 C.3     1  UNL1        0.0193
      3 C         144.6855  140.9742  164.3326 C.3     1  UNL1        0.0287
      4 C         143.7915  141.9262  165.0707 C.3     1  UNL1        0.0955
      5 C         143.3715  143.2136  164.4256 C.3     1  UNL1        0.0287
      6 C         143.8454  143.5491  163.0425 C.3     1  UNL1        0.0193
      7 O         144.0257  142.1535  164.3146 O.3     1  UNL1       -0.3571
      8 C         144.4542  142.4568  163.0641 C.3     1  UNL1        0.1562
      9 N         145.2133  142.9326  160.9214 N.3     1  UNL1       -0.2926
     10 H         145.2325  143.9503  160.8555 H       1  UNL1        0.1236
     11 C         144.4538  142.4357  159.7272 C.3     1  UNL1        0.1152
     12 O         138.3180  137.9564  161.4703 O.2     1  UNL1       -0.2707
     13 C         138.8782  139.2557  160.9723 C.2     1  UNL1        0.2718
     14 C         137.9532  140.3613  160.5573 C.3     1  UNL1        0.2898
     15 O         138.5133  141.6607  160.0594 O.3     1  UNL1       -0.4628
     16 C         139.9984  141.8544  159.9763 C.ar    1  UNL1        0.1708
     17 C         140.5587  143.1538  159.4783 C.ar    1  UNL1        0.0411
     18 C         142.0438  143.3474  159.3954 C.ar    1  UNL1        0.0193
     19 C         142.9687  142.2419  159.8103 C.ar    1  UNL1        0.0765
     20 N         142.4085  140.9426  160.3083 N.ar    1  UNL1       -0.2304
     21 C         140.9234  140.7488  160.3913 C.ar    1  UNL1        0.1682
     22 N         140.3633  139.4495  160.8893 N.am    1  UNL1       -0.2639
     23 H         140.9703  138.7239  161.1616 H       1  UNL1        0.1565
     24 C         143.3176  141.5907  166.4537 C.3     1  UNL1        0.0604
     25 C         142.0221  140.8594  166.6458 C.3     1  UNL1        0.1335
     26 O         142.2774  140.3631  165.2535 O.3     1  UNL1       -0.3806
     27 C         140.7800  140.0243  166.5469 C.3     1  UNL1        0.1402
     28 N         140.0280  140.1573  167.8379 N.ar    1  UNL1       -0.2896
     29 C         138.7859  139.7133  168.5660 C.ar    1  UNL1        0.2886
     30 O         137.9038  138.7845  167.7856 O.2     1  UNL1       -0.2645
     31 C         138.3987  140.1246  169.9556 C.ar    1  UNL1        0.1974
     32 F         137.1294  139.6070  170.5647 F       1  UNL1       -0.1991
     33 C         139.2807  141.0534  170.7361 C.ar    1  UNL1        0.0551
     34 C         140.5501  141.5710  170.1270 C.ar    1  UNL1        0.0994
     35 N         141.5273  142.5012  170.7826 N.ar    1  UNL1       -0.2400
     36 C         142.7597  142.9350  170.0459 C.ar    1  UNL1        0.1282
     37 C         143.0150  142.4387  168.6536 C.ar    1  UNL1        0.1588
     38 F         144.2475  142.8726  167.9168 F       1  UNL1       -0.2027
     39 C         142.0378  141.5086  167.9980 C.ar    1  UNL1        0.0500
     40 C         140.8053  141.0747  168.7347 C.ar    1  UNL1        0.0807
     41 H         141.5546  139.7759  164.9820 H       1  UNL1        0.2108
@<TRIPOS>BOND
     1    12    13    2
     2    13    14    1
     3    14    15    1
     4    15    16    1
     5    16    17   ar
     6    17    18   ar
     7    18    19   ar
     8    19    11    1
     9    11     9    1
    10     9     1    1
    11     1     2    1
    12     2     3    1
    13     3     4    1
    14     4    24    1
    15    24    25    1
    16    25    26    1
    17    25    27    1
    18    27    28    1
    19    28    29   ar
    20    29    30    2
    21    29    31   ar
    22    31    32    1
    23    31    33   ar
    24    33    34   ar
    25    34    35   ar
    26    35    36   ar
    27    36    37   ar
    28    37    38    1
    29    37    39   ar
    30    39    40   ar
    31     4     5    1
    32     5     6    1
    33     4     7    1
    34     7     8    1
    35    19    20   ar
    36    20    21   ar
    37    21    22    1
    38    22    13   am
    39    21    16   ar
    40     6     1    1
    41     8     1    1
    42    39    25    1
    43    40    28   ar
    44    40    34   ar
    45     9    10    1
    46    26    41    1
    47    22    23    1
