@<TRIPOS>MOLECULE
*****
 48 55 0 0 0
SMALL
GASTEIGER

@<TRIPOS>ATOM
      1 C         140.2326  144.1502  159.1353 C.ar    1  UNL1        0.0191
      2 C         140.8578  145.4041  158.5997 C.ar    1  UNL1        0.0013
      3 C         140.5268  145.8746  157.2144 C.ar    1  UNL1       -0.0029
      4 C         139.5706  145.0912  156.3647 C.ar    1  UNL1       -0.0061
      5 C         138.9454  143.8374  156.9003 C.ar    1  UNL1       -0.0029
      6 C         139.2764  143.3668  158.2857 C.ar    1  UNL1        0.0013
      7 C         140.7724  142.7777  165.8491 C.ar    1  UNL1        0.1335
      8 C         139.6570  143.7578  165.6365 C.ar    1  UNL1        0.0360
      9 C         139.3259  144.2283  164.2512 C.ar    1  UNL1        0.0251
     10 C         140.1103  143.7187  163.0786 C.ar    1  UNL1        0.1171
     11 N         139.7793  144.1893  161.6932 N.ar    1  UNL1       -0.2407
     12 C         140.5636  143.6797  160.5206 C.ar    1  UNL1        0.0989
     13 C         141.6791  142.6995  160.7333 C.ar    1  UNL1        0.1005
     14 N         142.0101  142.2291  162.1186 N.ar    1  UNL1       -0.2237
     15 C         141.2257  142.7386  163.2912 C.ar    1  UNL1        0.1814
     16 N         141.5568  142.2681  164.6765 N.ar    1  UNL1       -0.2104
     17 C         142.0966  140.8957  171.3903 C.3     1  UNL1        0.0897
     18 N         141.7656  141.3661  170.0050 N.3     1  UNL1       -0.2686
     19 C         142.4908  140.7915  168.8244 C.3     1  UNL1        0.0939
     20 C         142.1597  141.2620  167.4391 C.3     1  UNL1        0.1095
     21 N         141.1035  142.3072  167.2344 N.pl3   1  UNL1       -0.2903
     22 C         140.3782  142.8819  168.4150 C.3     1  UNL1        0.1095
     23 C         140.7093  142.4114  169.8003 C.3     1  UNL1        0.0939
     24 C         142.4635  142.1900  159.5607 C.ar    1  UNL1        0.0192
     25 C         141.9914  140.9790  158.8118 C.ar    1  UNL1        0.0015
     26 C         142.7758  140.4694  157.6391 C.ar    1  UNL1        0.0000
     27 C         144.0323  141.1708  157.2154 C.ar    1  UNL1        0.0000
     28 C         144.5043  142.3817  157.9643 C.ar    1  UNL1        0.0000
     29 C         143.7199  142.8913  159.1370 C.ar    1  UNL1        0.0015
     30 C         139.2396  145.5617  154.9795 C.3     1  UNL1        0.0991
     31 N         139.6503  146.9344  154.5354 N.3     1  UNL1       -0.2689
     32 C         139.0099  148.1441  155.1489 C.3     1  UNL1        0.0728
     33 C         139.4206  149.5167  154.7049 C.3     1  UNL1        0.0249
     34 C         140.4718  149.6796  153.6473 C.3     1  UNL1        0.0613
     35 C         141.1123  148.4699  153.0338 C.3     1  UNL1        0.0249
     36 C         140.7015  147.0973  153.4779 C.3     1  UNL1        0.0728
     37 C         140.8826  151.0522  153.2032 C.ar    1  UNL1        0.1396
     38 N         140.1736  151.8997  152.1888 N.ar    1  UNL1       -0.1335
     39 N         140.9273  153.1896  152.0542 N.ar    1  UNL1       -0.1277
     40 C         142.1021  153.1394  152.9856 C.ar    1  UNL1        0.1807
     41 N         142.0744  151.8184  153.6957 N.ar    1  UNL1       -0.3234
     42 H         142.7244  151.5086  154.3671 H       1  UNL1        0.1686
     43 C         143.1249  154.2203  153.1738 C.ar    1  UNL1        0.1169
     44 C         143.9006  154.3040  154.4550 C.ar    1  UNL1        0.0223
     45 C         144.9234  155.3849  154.6431 C.ar    1  UNL1        0.0032
     46 C         145.1706  156.3821  153.5502 C.ar    1  UNL1        0.0207
     47 C         144.3950  156.2983  152.2690 C.ar    1  UNL1        0.0989
     48 N         143.3721  155.2174  152.0808 N.ar    1  UNL1       -0.2407
@<TRIPOS>BOND
     1    17    18    1
     2    18    19    1
     3    19    20    1
     4    20    21    1
     5    21     7    1
     6     7     8   ar
     7     8     9   ar
     8     9    10   ar
     9    10    11   ar
    10    11    12   ar
    11    12     1    1
    12     1     2   ar
    13     2     3   ar
    14     3     4   ar
    15     4    30    1
    16    30    31    1
    17    31    32    1
    18    32    33    1
    19    33    34    1
    20    34    37    1
    21    37    38   ar
    22    38    39   ar
    23    39    40   ar
    24    40    43    1
    25    43    44   ar
    26    44    45   ar
    27    45    46   ar
    28    46    47   ar
    29    47    48   ar
    30    40    41   ar
    31    34    35    1
    32    35    36    1
    33     4     5   ar
    34     5     6   ar
    35    12    13   ar
    36    13    24    1
    37    24    25   ar
    38    25    26   ar
    39    26    27   ar
    40    27    28   ar
    41    28    29   ar
    42    13    14   ar
    43    14    15   ar
    44    15    16   ar
    45    21    22    1
    46    22    23    1
    47    23    18    1
    48    16     7   ar
    49    15    10   ar
    50     6     1   ar
    51    29    24   ar
    52    36    31    1
    53    41    37   ar
    54    48    43   ar
    55    41    42    1
@<TRIPOS>MOLECULE
*****
 48 55 0 0 0
SMALL
GASTEIGER

@<TRIPOS>ATOM
      1 C         141.1083  138.2885  157.0262 C.ar    1  UNL1        0.0191
      2 C         140.0185  138.3799  158.0528 C.ar    1  UNL1        0.0013
      3 C         139.6167  139.7162  158.6032 C.ar    1  UNL1       -0.0029
      4 C         140.3048  140.9611  158.1269 C.ar    1  UNL1       -0.0061
      5 C         141.3946  140.8697  157.1003 C.ar    1  UNL1       -0.0029
      6 C         141.7964  139.5333  156.5499 C.ar    1  UNL1        0.0013
      7 C         143.7428  132.1162  155.5390 C.ar    1  UNL1        0.1335
      8 C         144.3687  132.6254  156.8034 C.ar    1  UNL1        0.0360
      9 C         143.9670  133.9617  157.3537 C.ar    1  UNL1        0.0251
     10 C         142.9394  134.7887  156.6396 C.ar    1  UNL1        0.1171
     11 N         142.5376  136.1251  157.1900 N.ar    1  UNL1       -0.2407
     12 C         141.5100  136.9522  156.4759 C.ar    1  UNL1        0.0989
     13 C         140.8841  136.4429  155.2113 C.ar    1  UNL1        0.1005
     14 N         141.2859  135.1066  154.6610 N.ar    1  UNL1       -0.2237
     15 C         142.3135  134.2795  155.3751 C.ar    1  UNL1        0.1814
     16 N         142.7152  132.9432  154.8248 N.ar    1  UNL1       -0.2104
     17 C         145.3497  126.7709  153.3375 C.3     1  UNL1        0.0897
     18 N         144.9479  128.1072  153.8879 N.3     1  UNL1       -0.2686
     19 C         144.3432  129.1397  152.9834 C.3     1  UNL1        0.0939
     20 C         143.9414  130.4761  153.5338 C.3     1  UNL1        0.1095
     21 N         144.1445  130.7798  154.9886 N.pl3   1  UNL1       -0.2903
     22 C         144.7493  129.7473  155.8930 C.3     1  UNL1        0.1095
     23 C         145.1510  128.4110  155.3427 C.3     1  UNL1        0.0939
     24 C         139.8565  137.2699  154.4972 C.ar    1  UNL1        0.0192
     25 C         140.2591  138.1237  153.3314 C.ar    1  UNL1        0.0015
     26 C         139.2315  138.9508  152.6172 C.ar    1  UNL1        0.0000
     27 C         137.8013  138.9241  153.0689 C.ar    1  UNL1        0.0000
     28 C         137.3988  138.0703  154.2347 C.ar    1  UNL1        0.0000
     29 C         138.4264  137.2432  154.9488 C.ar    1  UNL1        0.0015
     30 C         139.9031  142.2974  158.6772 C.3     1  UNL1        0.0991
     31 N         139.9273  143.5100  157.7946 N.3     1  UNL1       -0.2689
     32 C         140.9134  144.6093  158.0574 C.3     1  UNL1        0.0728
     33 C         140.9377  145.8219  157.1749 C.3     1  UNL1        0.0249
     34 C         139.9757  145.9353  156.0295 C.3     1  UNL1        0.0613
     35 C         138.9896  144.8360  155.7668 C.3     1  UNL1        0.0249
     36 C         138.9654  143.6234  156.6493 C.3     1  UNL1        0.0728
     37 C         140.0000  147.1479  155.1469 C.ar    1  UNL1        0.1396
     38 N         140.6500  147.2442  153.7986 N.ar    1  UNL1       -0.1335
     39 N         140.4302  148.6330  153.2761 N.ar    1  UNL1       -0.1277
     40 C         139.6442  149.3951  154.3016 C.ar    1  UNL1        0.1807
     41 N         139.3783  148.4772  155.4578 N.ar    1  UNL1       -0.3234
     42 H         138.8828  148.7069  156.2769 H       1  UNL1        0.1686
     43 C         139.2017  150.8240  154.1903 C.ar    1  UNL1        0.1169
     44 C         138.8416  151.5959  155.4250 C.ar    1  UNL1        0.0223
     45 C         138.3992  153.0248  155.3138 C.ar    1  UNL1        0.0032
     46 C         138.3169  153.6818  153.9678 C.ar    1  UNL1        0.0207
     47 C         138.6771  152.9100  152.7331 C.ar    1  UNL1        0.0989
     48 N         139.1195  151.4810  152.8444 N.ar    1  UNL1       -0.2407
@<TRIPOS>BOND
     1    17    18    1
     2    18    19    1
     3    19    20    1
     4    20    21    1
     5    21     7    1
     6     7     8   ar
     7     8     9   ar
     8     9    10   ar
     9    10    11   ar
    10    11    12   ar
    11    12     1    1
    12     1     2   ar
    13     2     3   ar
    14     3     4   ar
    15     4    30    1
    16    30    31    1
    17    31    32    1
    18    32    33    1
    19    33    34    1
    20    34    37    1
    21    37    38   ar
    22    38    39   ar
    23    39    40   ar
    24    40    43    1
    25    43    44   ar
    26    44    45   ar
    27    45    46   ar
    28    46    47   ar
    29    47    48   ar
    30    40    41   ar
    31    34    35    1
    32    35    36    1
    33     4     5   ar
    34     5     6   ar
    35    12    13   ar
    36    13    24    1
    37    24    25   ar
    38    25    26   ar
    39    26    27   ar
    40    27    28   ar
    41    28    29   ar
    42    13    14   ar
    43    14    15   ar
    44    15    16   ar
    45    21    22    1
    46    22    23    1
    47    23    18    1
    48    16     7   ar
    49    15    10   ar
    50     6     1   ar
    51    29    24   ar
    52    36    31    1
    53    41    37   ar
    54    48    43   ar
    55    41    42    1
@<TRIPOS>MOLECULE
*****
 48 55 0 0 0
SMALL
GASTEIGER

@<TRIPOS>ATOM
      1 C         139.6299  142.1712  160.0244 C.ar    1  UNL1        0.0191
      2 C         138.2552  141.6523  160.3259 C.ar    1  UNL1        0.0013
      3 C         138.0863  140.4124  161.1530 C.ar    1  UNL1       -0.0029
      4 C         139.2921  139.6914  161.6785 C.ar    1  UNL1       -0.0061
      5 C         140.6668  140.2102  161.3770 C.ar    1  UNL1       -0.0029
      6 C         140.8357  141.4502  160.5499 C.ar    1  UNL1        0.0013
      7 C         139.8691  147.1405  155.2811 C.ar    1  UNL1        0.1335
      8 C         139.2637  145.9101  154.6730 C.ar    1  UNL1        0.0360
      9 C         139.0948  144.6702  155.5001 C.ar    1  UNL1        0.0251
     10 C         139.5313  144.6607  156.9352 C.ar    1  UNL1        0.1171
     11 N         139.3624  143.4207  157.7622 N.ar    1  UNL1       -0.2407
     12 C         139.7988  143.4111  159.1973 C.ar    1  UNL1        0.0989
     13 C         140.4042  144.6416  159.8053 C.ar    1  UNL1        0.1005
     14 N         140.5731  145.8815  158.9783 N.ar    1  UNL1       -0.2237
     15 C         140.1366  145.8910  157.5432 C.ar    1  UNL1        0.1814
     16 N         140.3055  147.1309  156.7161 N.ar    1  UNL1       -0.2104
     17 C         140.5447  152.1004  151.9730 C.3     1  UNL1        0.0897
     18 N         140.3758  150.8604  152.7999 N.3     1  UNL1       -0.2686
     19 C         140.9506  149.5586  152.3258 C.3     1  UNL1        0.0939
     20 C         140.7817  148.3186  153.1529 C.3     1  UNL1        0.1095
     21 N         140.0380  148.3805  154.4540 N.pl3   1  UNL1       -0.2903
     22 C         139.4632  149.6823  154.9282 C.3     1  UNL1        0.1095
     23 C         139.6320  150.9222  154.1012 C.3     1  UNL1        0.0939
     24 C         140.8406  144.6320  161.2404 C.ar    1  UNL1        0.0192
     25 C         142.2863  144.4254  161.5833 C.ar    1  UNL1        0.0015
     26 C         142.7227  144.4159  163.0183 C.ar    1  UNL1        0.0000
     27 C         141.7135  144.6130  164.1105 C.ar    1  UNL1        0.0000
     28 C         140.2680  144.8196  163.7676 C.ar    1  UNL1        0.0000
     29 C         139.8315  144.8291  162.3325 C.ar    1  UNL1        0.0015
     30 C         139.1232  138.4515  162.5056 C.3     1  UNL1        0.0991
     31 N         138.8134  138.5625  163.9691 N.3     1  UNL1       -0.2689
     32 C         138.5003  137.3302  164.7650 C.3     1  UNL1        0.0728
     33 C         138.1905  137.4412  166.2284 C.3     1  UNL1        0.0249
     34 C         138.1938  138.7845  166.8959 C.3     1  UNL1        0.0613
     35 C         138.5068  140.0168  166.1000 C.3     1  UNL1        0.0249
     36 C         138.8166  139.9058  164.6366 C.3     1  UNL1        0.0728
     37 C         137.8840  138.8956  168.3594 C.ar    1  UNL1        0.1396
     38 N         138.3253  140.0006  169.2727 N.ar    1  UNL1       -0.1335
     39 N         137.7925  139.7090  170.6442 N.ar    1  UNL1       -0.1277
     40 C         137.0219  138.4237  170.5786 C.ar    1  UNL1        0.1807
     41 N         137.0784  137.9210  169.1665 N.ar    1  UNL1       -0.3234
     42 H         136.6603  137.0962  168.8288 H       1  UNL1        0.1686
     43 C         136.3183  137.7581  171.7240 C.ar    1  UNL1        0.1169
     44 C         135.0725  138.3678  172.2952 C.ar    1  UNL1        0.0223
     45 C         134.3690  137.7022  173.4406 C.ar    1  UNL1        0.0032
     46 C         134.9111  136.4269  174.0147 C.ar    1  UNL1        0.0207
     47 C         136.1569  135.8171  173.4435 C.ar    1  UNL1        0.0989
     48 N         136.8605  136.4828  172.2981 N.ar    1  UNL1       -0.2407
@<TRIPOS>BOND
     1    17    18    1
     2    18    19    1
     3    19    20    1
     4    20    21    1
     5    21     7    1
     6     7     8   ar
     7     8     9   ar
     8     9    10   ar
     9    10    11   ar
    10    11    12   ar
    11    12     1    1
    12     1     2   ar
    13     2     3   ar
    14     3     4   ar
    15     4    30    1
    16    30    31    1
    17    31    32    1
    18    32    33    1
    19    33    34    1
    20    34    37    1
    21    37    38   ar
    22    38    39   ar
    23    39    40   ar
    24    40    43    1
    25    43    44   ar
    26    44    45   ar
    27    45    46   ar
    28    46    47   ar
    29    47    48   ar
    30    40    41   ar
    31    34    35    1
    32    35    36    1
    33     4     5   ar
    34     5     6   ar
    35    12    13   ar
    36    13    24    1
    37    24    25   ar
    38    25    26   ar
    39    26    27   ar
    40    27    28   ar
    41    28    29   ar
    42    13    14   ar
    43    14    15   ar
    44    15    16   ar
    45    21    22    1
    46    22    23    1
    47    23    18    1
    48    16     7   ar
    49    15    10   ar
    50     6     1   ar
    51    29    24   ar
    52    36    31    1
    53    41    37   ar
    54    48    43   ar
    55    41    42    1
@<TRIPOS>MOLECULE
*****
 48 55 0 0 0
SMALL
GASTEIGER

@<TRIPOS>ATOM
      1 C         139.3789  144.1353  156.0667 C.ar    1  UNL1        0.0191
      2 C         138.1751  143.3295  155.6772 C.ar    1  UNL1        0.0013
      3 C         137.9928  141.9432  156.2202 C.ar    1  UNL1       -0.0029
      4 C         139.0142  141.3627  157.1529 C.ar    1  UNL1       -0.0061
      5 C         140.2179  142.1685  157.5424 C.ar    1  UNL1       -0.0029
      6 C         140.4003  143.5549  156.9993 C.ar    1  UNL1        0.0013
      7 C         139.3933  150.8354  154.5308 C.ar    1  UNL1        0.1335
      8 C         138.4961  150.6040  155.7104 C.ar    1  UNL1        0.0360
      9 C         138.3138  149.2178  156.2535 C.ar    1  UNL1        0.0251
     10 C         139.0286  148.0628  155.6170 C.ar    1  UNL1        0.1171
     11 N         138.8463  146.6765  156.1601 N.ar    1  UNL1       -0.2407
     12 C         139.5612  145.5216  155.5236 C.ar    1  UNL1        0.0989
     13 C         140.4584  145.7530  154.3439 C.ar    1  UNL1        0.1005
     14 N         140.6407  147.1393  153.8009 N.ar    1  UNL1       -0.2237
     15 C         139.9258  148.2942  154.4374 C.ar    1  UNL1        0.1814
     16 N         140.1081  149.6805  153.8943 N.ar    1  UNL1       -0.2104
     17 C         140.1227  156.3805  152.3583 C.3     1  UNL1        0.0897
     18 N         139.9403  154.9943  152.9014 N.3     1  UNL1       -0.2686
     19 C         138.7402  154.6694  153.7406 C.3     1  UNL1        0.0939
     20 C         138.5579  153.2831  154.2838 C.3     1  UNL1        0.1095
     21 N         139.5756  152.2217  153.9877 N.pl3   1  UNL1       -0.2903
     22 C         140.7757  152.5466  153.1485 C.3     1  UNL1        0.1095
     23 C         140.9580  153.9328  152.6053 C.3     1  UNL1        0.0939
     24 C         141.1732  144.5981  153.7074 C.ar    1  UNL1        0.0192
     25 C         140.4722  143.7537  152.6848 C.ar    1  UNL1        0.0015
     26 C         141.1871  142.5988  152.0483 C.ar    1  UNL1        0.0000
     27 C         142.6030  142.2883  152.4344 C.ar    1  UNL1        0.0000
     28 C         143.3039  143.1327  153.4569 C.ar    1  UNL1        0.0000
     29 C         142.5890  144.2876  154.0935 C.ar    1  UNL1        0.0015
     30 C         138.8319  139.9765  157.6959 C.3     1  UNL1        0.0991
     31 N         138.8728  139.7396  159.1766 N.3     1  UNL1       -0.2689
     32 C         139.6996  138.6192  159.7343 C.3     1  UNL1        0.0728
     33 C         139.7405  138.3823  161.2149 C.3     1  UNL1        0.0249
     34 C         138.9545  139.2658  162.1378 C.3     1  UNL1        0.0613
     35 C         138.1277  140.3862  161.5800 C.3     1  UNL1        0.0249
     36 C         138.0868  140.6231  160.0994 C.3     1  UNL1        0.0728
     37 C         138.9954  139.0290  163.6184 C.ar    1  UNL1        0.1396
     38 N         138.8361  137.7045  164.3042 N.ar    1  UNL1       -0.1335
     39 N         138.9450  137.9320  165.7828 N.ar    1  UNL1       -0.1277
     40 C         139.1716  139.3971  166.0109 C.ar    1  UNL1        0.1807
     41 N         139.2027  140.0751  164.6733 N.ar    1  UNL1       -0.3234
     42 H         139.3359  141.0377  164.5153 H       1  UNL1        0.1686
     43 C         139.3378  140.0667  167.3429 C.ar    1  UNL1        0.1169
     44 C         140.1892  141.2958  167.4633 C.ar    1  UNL1        0.0223
     45 C         140.3555  141.9653  168.7952 C.ar    1  UNL1        0.0032
     46 C         139.6703  141.4059  170.0067 C.ar    1  UNL1        0.0207
     47 C         138.8189  140.1768  169.8862 C.ar    1  UNL1        0.0989
     48 N         138.6526  139.5072  168.5543 N.ar    1  UNL1       -0.2407
@<TRIPOS>BOND
     1    17    18    1
     2    18    19    1
     3    19    20    1
     4    20    21    1
     5    21     7    1
     6     7     8   ar
     7     8     9   ar
     8     9    10   ar
     9    10    11   ar
    10    11    12   ar
    11    12     1    1
    12     1     2   ar
    13     2     3   ar
    14     3     4   ar
    15     4    30    1
    16    30    31    1
    17    31    32    1
    18    32    33    1
    19    33    34    1
    20    34    37    1
    21    37    38   ar
    22    38    39   ar
    23    39    40   ar
    24    40    43    1
    25    43    44   ar
    26    44    45   ar
    27    45    46   ar
    28    46    47   ar
    29    47    48   ar
    30    40    41   ar
    31    34    35    1
    32    35    36    1
    33     4     5   ar
    34     5     6   ar
    35    12    13   ar
    36    13    24    1
    37    24    25   ar
    38    25    26   ar
    39    26    27   ar
    40    27    28   ar
    41    28    29   ar
    42    13    14   ar
    43    14    15   ar
    44    15    16   ar
    45    21    22    1
    46    22    23    1
    47    23    18    1
    48    16     7   ar
    49    15    10   ar
    50     6     1   ar
    51    29    24   ar
    52    36    31    1
    53    41    37   ar
    54    48    43   ar
    55    41    42    1
@<TRIPOS>MOLECULE
*****
 48 55 0 0 0
SMALL
GASTEIGER

@<TRIPOS>ATOM
      1 C         140.9701  137.9559  156.6860 C.ar    1  UNL1        0.0191
      2 C         139.9171  137.9577  157.7544 C.ar    1  UNL1        0.0013
      3 C         139.5110  139.2467  158.4051 C.ar    1  UNL1       -0.0029
      4 C         140.1579  140.5340  157.9875 C.ar    1  UNL1       -0.0061
      5 C         141.2108  140.5323  156.9192 C.ar    1  UNL1       -0.0029
      6 C         141.6169  139.2432  156.2684 C.ar    1  UNL1        0.0013
      7 C         143.6306  131.9279  154.7281 C.ar    1  UNL1        0.1335
      8 C         144.2608  132.3450  156.0237 C.ar    1  UNL1        0.0360
      9 C         143.8547  133.6340  156.6744 C.ar    1  UNL1        0.0251
     10 C         142.8185  134.5059  156.0295 C.ar    1  UNL1        0.1171
     11 N         142.4124  135.7950  156.6803 N.ar    1  UNL1       -0.2407
     12 C         141.3761  136.6669  156.0353 C.ar    1  UNL1        0.0989
     13 C         140.7459  136.2497  154.7396 C.ar    1  UNL1        0.1005
     14 N         141.1520  134.9607  154.0889 N.ar    1  UNL1       -0.2237
     15 C         142.1883  134.0888  154.7338 C.ar    1  UNL1        0.1814
     16 N         142.5943  132.7998  154.0831 N.ar    1  UNL1       -0.2104
     17 C         145.2549  126.7716  152.1251 C.3     1  UNL1        0.0897
     18 N         144.8488  128.0607  152.7758 N.3     1  UNL1       -0.2686
     19 C         144.1708  129.1275  151.9682 C.3     1  UNL1        0.0939
     20 C         143.7647  130.4166  152.6190 C.3     1  UNL1        0.1095
     21 N         144.0367  130.6388  154.0773 N.pl3   1  UNL1       -0.2903
     22 C         144.7147  129.5720  154.8849 C.3     1  UNL1        0.1095
     23 C         145.1208  128.2829  154.2342 C.3     1  UNL1        0.0939
     24 C         139.7097  137.1216  154.0946 C.ar    1  UNL1        0.0192
     25 C         140.0685  137.9545  152.8997 C.ar    1  UNL1        0.0015
     26 C         139.0322  138.8263  152.2548 C.ar    1  UNL1        0.0000
     27 C         137.6371  138.8653  152.8047 C.ar    1  UNL1        0.0000
     28 C         137.2784  138.0325  153.9995 C.ar    1  UNL1        0.0000
     29 C         138.3147  137.1606  154.6444 C.ar    1  UNL1        0.0015
     30 C         139.7518  141.8231  158.6382 C.3     1  UNL1        0.0991
     31 N         139.8733  141.9837  160.1247 N.3     1  UNL1       -0.2689
     32 C         138.7064  142.4853  160.9227 C.3     1  UNL1        0.0728
     33 C         138.8279  142.6460  162.4090 C.3     1  UNL1        0.0249
     34 C         140.1162  142.3051  163.0974 C.3     1  UNL1        0.0613
     35 C         141.2831  141.8036  162.2994 C.3     1  UNL1        0.0249
     36 C         141.1617  141.6429  160.8130 C.3     1  UNL1        0.0728
     37 C         140.2377  142.4658  164.5839 C.ar    1  UNL1        0.1396
     38 N         139.6013  143.5447  165.4090 N.ar    1  UNL1       -0.1335
     39 N         139.9873  143.3215  166.8412 N.ar    1  UNL1       -0.1277
     40 C         140.8622  142.1045  166.9012 C.ar    1  UNL1        0.1807
     41 N         141.0170  141.5757  165.5061 N.ar    1  UNL1       -0.3234
     42 H         141.5385  140.7835  165.2421 H       1  UNL1        0.1686
     43 C         141.4748  141.5192  168.1390 C.ar    1  UNL1        0.1169
     44 C         142.7819  142.0479  168.6510 C.ar    1  UNL1        0.0223
     45 C         143.3945  141.4626  169.8888 C.ar    1  UNL1        0.0032
     46 C         142.7000  140.3486  170.6146 C.ar    1  UNL1        0.0207
     47 C         141.3929  139.8199  170.1026 C.ar    1  UNL1        0.0989
     48 N         140.7803  140.4052  168.8649 N.ar    1  UNL1       -0.2407
@<TRIPOS>BOND
     1    17    18    1
     2    18    19    1
     3    19    20    1
     4    20    21    1
     5    21     7    1
     6     7     8   ar
     7     8     9   ar
     8     9    10   ar
     9    10    11   ar
    10    11    12   ar
    11    12     1    1
    12     1     2   ar
    13     2     3   ar
    14     3     4   ar
    15     4    30    1
    16    30    31    1
    17    31    32    1
    18    32    33    1
    19    33    34    1
    20    34    37    1
    21    37    38   ar
    22    38    39   ar
    23    39    40   ar
    24    40    43    1
    25    43    44   ar
    26    44    45   ar
    27    45    46   ar
    28    46    47   ar
    29    47    48   ar
    30    40    41   ar
    31    34    35    1
    32    35    36    1
    33     4     5   ar
    34     5     6   ar
    35    12    13   ar
    36    13    24    1
    37    24    25   ar
    38    25    26   ar
    39    26    27   ar
    40    27    28   ar
    41    28    29   ar
    42    13    14   ar
    43    14    15   ar
    44    15    16   ar
    45    21    22    1
    46    22    23    1
    47    23    18    1
    48    16     7   ar
    49    15    10   ar
    50     6     1   ar
    51    29    24   ar
    52    36    31    1
    53    41    37   ar
    54    48    43   ar
    55    41    42    1
@<TRIPOS>MOLECULE
*****
 48 55 0 0 0
SMALL
GASTEIGER

@<TRIPOS>ATOM
      1 C         140.6745  138.8951  157.2318 C.ar    1  UNL1        0.0191
      2 C         141.0122  140.1366  156.4606 C.ar    1  UNL1        0.0013
      3 C         140.3319  141.4323  156.7896 C.ar    1  UNL1       -0.0029
      4 C         139.3138  141.4866  157.8899 C.ar    1  UNL1       -0.0061
      5 C         138.9761  140.2452  158.6612 C.ar    1  UNL1       -0.0029
      6 C         139.6564  138.9494  158.3321 C.ar    1  UNL1        0.0013
      7 C         142.9365  132.9014  154.7403 C.ar    1  UNL1        0.1335
      8 C         141.7968  133.3861  153.8940 C.ar    1  UNL1        0.0360
      9 C         141.1165  134.6818  154.2231 C.ar    1  UNL1        0.0251
     10 C         141.5758  135.4927  155.3984 C.ar    1  UNL1        0.1171
     11 N         140.8954  136.7885  155.7274 N.ar    1  UNL1       -0.2407
     12 C         141.3548  137.5994  156.9028 C.ar    1  UNL1        0.0989
     13 C         142.4945  137.1146  157.7491 C.ar    1  UNL1        0.1005
     14 N         143.1748  135.8190  157.4200 N.ar    1  UNL1       -0.2237
     15 C         142.7155  135.0080  156.2447 C.ar    1  UNL1        0.1814
     16 N         143.3958  133.7123  155.9156 N.ar    1  UNL1       -0.2104
     17 C         145.6579  127.7185  153.4241 C.3     1  UNL1        0.0897
     18 N         144.9776  129.0142  153.7531 N.3     1  UNL1       -0.2686
     19 C         145.0565  129.5707  155.1438 C.3     1  UNL1        0.0939
     20 C         144.3761  130.8665  155.4729 C.3     1  UNL1        0.1095
     21 N         143.6168  131.6056  154.4113 N.pl3   1  UNL1       -0.2903
     22 C         143.5379  131.0491  153.0206 C.3     1  UNL1        0.1095
     23 C         144.2182  129.7534  152.6915 C.3     1  UNL1        0.0939
     24 C         142.9538  137.9256  158.9244 C.ar    1  UNL1        0.0192
     25 C         142.9762  137.3148  160.2943 C.ar    1  UNL1        0.0015
     26 C         143.4355  138.1257  161.4696 C.ar    1  UNL1        0.0000
     27 C         143.8724  139.5475  161.2750 C.ar    1  UNL1        0.0000
     28 C         143.8500  140.1582  159.9052 C.ar    1  UNL1        0.0000
     29 C         143.3907  139.3473  158.7299 C.ar    1  UNL1        0.0015
     30 C         138.6335  142.7823  158.2190 C.3     1  UNL1        0.0991
     31 N         138.9130  144.0059  157.3976 N.3     1  UNL1       -0.2689
     32 C         138.1808  144.2264  156.1072 C.3     1  UNL1        0.0728
     33 C         138.4603  145.4499  155.2858 C.3     1  UNL1        0.0249
     34 C         139.4720  146.4531  155.7549 C.3     1  UNL1        0.0613
     35 C         140.2042  146.2327  157.0453 C.3     1  UNL1        0.0249
     36 C         139.9247  145.0091  157.8667 C.3     1  UNL1        0.0728
     37 C         139.7515  147.6768  154.9335 C.ar    1  UNL1        0.1396
     38 N         140.5134  147.7167  153.6420 N.ar    1  UNL1       -0.1335
     39 N         140.5510  149.1399  153.1698 N.ar    1  UNL1       -0.1277
     40 C         139.8123  149.9796  154.1695 C.ar    1  UNL1        0.1807
     41 N         139.3182  149.0753  155.2595 N.ar    1  UNL1       -0.3234
     42 H         138.8004  149.3513  156.0500 H       1  UNL1        0.1686
     43 C         139.6042  151.4631  154.0925 C.ar    1  UNL1        0.1169
     44 C         138.5957  152.1262  154.9831 C.ar    1  UNL1        0.0223
     45 C         138.3876  153.6096  154.9062 C.ar    1  UNL1        0.0032
     46 C         139.1881  154.4301  153.9387 C.ar    1  UNL1        0.0207
     47 C         140.1967  153.7671  153.0481 C.ar    1  UNL1        0.0989
     48 N         140.4048  152.2836  153.1250 N.ar    1  UNL1       -0.2407
@<TRIPOS>BOND
     1    17    18    1
     2    18    19    1
     3    19    20    1
     4    20    21    1
     5    21     7    1
     6     7     8   ar
     7     8     9   ar
     8     9    10   ar
     9    10    11   ar
    10    11    12   ar
    11    12     1    1
    12     1     2   ar
    13     2     3   ar
    14     3     4   ar
    15     4    30    1
    16    30    31    1
    17    31    32    1
    18    32    33    1
    19    33    34    1
    20    34    37    1
    21    37    38   ar
    22    38    39   ar
    23    39    40   ar
    24    40    43    1
    25    43    44   ar
    26    44    45   ar
    27    45    46   ar
    28    46    47   ar
    29    47    48   ar
    30    40    41   ar
    31    34    35    1
    32    35    36    1
    33     4     5   ar
    34     5     6   ar
    35    12    13   ar
    36    13    24    1
    37    24    25   ar
    38    25    26   ar
    39    26    27   ar
    40    27    28   ar
    41    28    29   ar
    42    13    14   ar
    43    14    15   ar
    44    15    16   ar
    45    21    22    1
    46    22    23    1
    47    23    18    1
    48    16     7   ar
    49    15    10   ar
    50     6     1   ar
    51    29    24   ar
    52    36    31    1
    53    41    37   ar
    54    48    43   ar
    55    41    42    1
@<TRIPOS>MOLECULE
*****
 48 55 0 0 0
SMALL
GASTEIGER

@<TRIPOS>ATOM
      1 C         140.3304  136.9573  154.6339 C.ar    1  UNL1        0.0191
      2 C         140.6481  137.4720  153.2612 C.ar    1  UNL1        0.0013
      3 C         139.8668  138.6181  152.6905 C.ar    1  UNL1       -0.0029
      4 C         138.7677  139.2497  153.4924 C.ar    1  UNL1       -0.0061
      5 C         138.4500  138.7351  154.8651 C.ar    1  UNL1       -0.0029
      6 C         139.2313  137.5889  155.4359 C.ar    1  UNL1        0.0013
      7 C         143.1370  130.9670  156.5017 C.ar    1  UNL1        0.1335
      8 C         142.0367  130.7075  155.5159 C.ar    1  UNL1        0.0360
      9 C         141.2554  131.8536  154.9451 C.ar    1  UNL1        0.0251
     10 C         141.5743  133.2593  155.3603 C.ar    1  UNL1        0.1171
     11 N         140.7929  134.4055  154.7895 N.ar    1  UNL1       -0.2407
     12 C         141.1118  135.8112  155.2047 C.ar    1  UNL1        0.0989
     13 C         142.2121  136.0707  156.1906 C.ar    1  UNL1        0.1005
     14 N         142.9935  134.9245  156.7613 N.ar    1  UNL1       -0.2237
     15 C         142.6746  133.5189  156.3462 C.ar    1  UNL1        0.1814
     16 N         143.4559  132.3727  156.9169 N.ar    1  UNL1       -0.2104
     17 C         146.2627  126.3825  158.7849 C.3     1  UNL1        0.0897
     18 N         145.4813  127.5286  158.2141 N.3     1  UNL1       -0.2686
     19 C         144.8938  127.4242  156.8379 C.3     1  UNL1        0.0939
     20 C         144.1124  128.5704  156.2671 C.3     1  UNL1        0.1095
     21 N         143.9184  129.8209  157.0725 N.pl3   1  UNL1       -0.2903
     22 C         144.5059  129.9252  158.4487 C.3     1  UNL1        0.1095
     23 C         145.2873  128.7791  159.0195 C.3     1  UNL1        0.0939
     24 C         142.5310  137.4764  156.6057 C.ar    1  UNL1        0.0192
     25 C         143.4012  138.3358  155.7372 C.ar    1  UNL1        0.0015
     26 C         143.7201  139.7415  156.1523 C.ar    1  UNL1        0.0000
     27 C         143.1689  140.2877  157.4360 C.ar    1  UNL1        0.0000
     28 C         142.2987  139.4284  158.3045 C.ar    1  UNL1        0.0000
     29 C         141.9798  138.0227  157.8893 C.ar    1  UNL1        0.0015
     30 C         137.9863  140.3959  152.9217 C.3     1  UNL1        0.0991
     31 N         138.1663  141.7772  153.4781 N.3     1  UNL1       -0.2689
     32 C         137.1814  142.3201  154.4708 C.3     1  UNL1        0.0728
     33 C         137.3614  143.7014  155.0272 C.3     1  UNL1        0.0249
     34 C         138.5262  144.5397  154.5910 C.3     1  UNL1        0.0613
     35 C         139.5110  143.9968  153.5984 C.3     1  UNL1        0.0249
     36 C         139.3311  142.6156  153.0419 C.3     1  UNL1        0.0728
     37 C         138.7062  145.9211  155.1474 C.ar    1  UNL1        0.1396
     38 N         138.8732  146.2733  156.5959 N.ar    1  UNL1       -0.1335
     39 N         139.0210  147.7626  156.6967 N.ar    1  UNL1       -0.1277
     40 C         138.9453  148.3309  155.3105 C.ar    1  UNL1        0.1807
     41 N         138.7507  147.1927  154.3530 N.ar    1  UNL1       -0.3234
     42 H         138.6670  147.2672  153.3749 H       1  UNL1        0.1686
     43 C         139.0464  149.7823  154.9459 C.ar    1  UNL1        0.1169
     44 C         138.6531  150.8345  155.9400 C.ar    1  UNL1        0.0223
     45 C         138.7542  152.2860  155.5754 C.ar    1  UNL1        0.0032
     46 C         139.2486  152.6853  154.2166 C.ar    1  UNL1        0.0207
     47 C         139.6419  151.6331  153.2225 C.ar    1  UNL1        0.0989
     48 N         139.5408  150.1816  153.5872 N.ar    1  UNL1       -0.2407
@<TRIPOS>BOND
     1    17    18    1
     2    18    19    1
     3    19    20    1
     4    20    21    1
     5    21     7    1
     6     7     8   ar
     7     8     9   ar
     8     9    10   ar
     9    10    11   ar
    10    11    12   ar
    11    12     1    1
    12     1     2   ar
    13     2     3   ar
    14     3     4   ar
    15     4    30    1
    16    30    31    1
    17    31    32    1
    18    32    33    1
    19    33    34    1
    20    34    37    1
    21    37    38   ar
    22    38    39   ar
    23    39    40   ar
    24    40    43    1
    25    43    44   ar
    26    44    45   ar
    27    45    46   ar
    28    46    47   ar
    29    47    48   ar
    30    40    41   ar
    31    34    35    1
    32    35    36    1
    33     4     5   ar
    34     5     6   ar
    35    12    13   ar
    36    13    24    1
    37    24    25   ar
    38    25    26   ar
    39    26    27   ar
    40    27    28   ar
    41    28    29   ar
    42    13    14   ar
    43    14    15   ar
    44    15    16   ar
    45    21    22    1
    46    22    23    1
    47    23    18    1
    48    16     7   ar
    49    15    10   ar
    50     6     1   ar
    51    29    24   ar
    52    36    31    1
    53    41    37   ar
    54    48    43   ar
    55    41    42    1
@<TRIPOS>MOLECULE
*****
 48 55 0 0 0
SMALL
GASTEIGER

@<TRIPOS>ATOM
      1 C         140.9735  138.8118  158.8896 C.ar    1  UNL1        0.0191
      2 C         139.7369  138.2122  158.2883 C.ar    1  UNL1        0.0013
      3 C         139.7500  137.7350  156.8663 C.ar    1  UNL1       -0.0029
      4 C         140.9996  137.8574  156.0456 C.ar    1  UNL1       -0.0061
      5 C         142.2361  138.4570  156.6468 C.ar    1  UNL1       -0.0029
      6 C         142.2230  138.9342  158.0689 C.ar    1  UNL1        0.0013
      7 C         141.3674  139.8060  165.6798 C.ar    1  UNL1        0.1335
      8 C         141.8266  138.4143  165.3599 C.ar    1  UNL1        0.0360
      9 C         141.8397  137.9372  163.9379 C.ar    1  UNL1        0.0251
     10 C         141.3935  138.8517  162.8358 C.ar    1  UNL1        0.1171
     11 N         141.4066  138.3744  161.4137 N.ar    1  UNL1       -0.2407
     12 C         140.9604  139.2889  160.3116 C.ar    1  UNL1        0.0989
     13 C         140.5011  140.6806  160.6316 C.ar    1  UNL1        0.1005
     14 N         140.4881  141.1578  162.0536 N.ar    1  UNL1       -0.2237
     15 C         140.9342  140.2433  163.1557 C.ar    1  UNL1        0.1814
     16 N         140.9212  140.7205  164.5777 N.ar    1  UNL1       -0.2104
     17 C         141.3149  141.7148  171.3678 C.3     1  UNL1        0.0897
     18 N         141.3280  141.2376  169.9459 N.3     1  UNL1       -0.2686
     19 C         142.6302  141.0910  169.2159 C.3     1  UNL1        0.0939
     20 C         142.6433  140.6138  167.7939 C.3     1  UNL1        0.1095
     21 N         141.3543  140.2832  167.1018 N.pl3   1  UNL1       -0.2903
     22 C         140.0521  140.4299  167.8317 C.3     1  UNL1        0.1095
     23 C         140.0389  140.9071  169.2537 C.3     1  UNL1        0.0939
     24 C         140.0550  141.5951  159.5295 C.ar    1  UNL1        0.0192
     25 C         138.6134  141.6233  159.1157 C.ar    1  UNL1        0.0015
     26 C         138.1672  142.5378  158.0136 C.ar    1  UNL1        0.0000
     27 C         139.1626  143.4241  157.3253 C.ar    1  UNL1        0.0000
     28 C         140.6041  143.3959  157.7390 C.ar    1  UNL1        0.0000
     29 C         141.0503  142.4814  158.8411 C.ar    1  UNL1        0.0015
     30 C         141.0126  137.3803  154.6236 C.3     1  UNL1        0.0991
     31 N         141.4521  135.9817  154.3058 N.3     1  UNL1       -0.2689
     32 C         141.8220  135.0416  155.4145 C.3     1  UNL1        0.0728
     33 C         142.2615  133.6431  155.0968 C.3     1  UNL1        0.0249
     34 C         142.3310  133.1847  153.6702 C.3     1  UNL1        0.0613
     35 C         141.9611  134.1248  152.5615 C.3     1  UNL1        0.0249
     36 C         141.5217  135.5233  152.8792 C.3     1  UNL1        0.0728
     37 C         142.7705  131.7861  153.3524 C.ar    1  UNL1        0.1396
     38 N         142.2118  130.9109  152.2699 N.ar    1  UNL1       -0.1335
     39 N         142.9419  129.6012  152.3098 N.ar    1  UNL1       -0.1277
     40 C         143.9518  129.6669  153.4170 C.ar    1  UNL1        0.1807
     41 N         143.8459  131.0173  154.0613 N.ar    1  UNL1       -0.3234
     42 H         144.3872  131.3420  154.8169 H       1  UNL1        0.1686
     43 C         144.9010  128.5742  153.8106 C.ar    1  UNL1        0.1169
     44 C         145.1219  128.2589  155.2604 C.ar    1  UNL1        0.0223
     45 C         146.0711  127.1662  155.6540 C.ar    1  UNL1        0.0032
     46 C         146.7993  126.3887  154.5979 C.ar    1  UNL1        0.0207
     47 C         146.5783  126.7040  153.1482 C.ar    1  UNL1        0.0989
     48 N         145.6292  127.7967  152.7545 N.ar    1  UNL1       -0.2407
@<TRIPOS>BOND
     1    17    18    1
     2    18    19    1
     3    19    20    1
     4    20    21    1
     5    21     7    1
     6     7     8   ar
     7     8     9   ar
     8     9    10   ar
     9    10    11   ar
    10    11    12   ar
    11    12     1    1
    12     1     2   ar
    13     2     3   ar
    14     3     4   ar
    15     4    30    1
    16    30    31    1
    17    31    32    1
    18    32    33    1
    19    33    34    1
    20    34    37    1
    21    37    38   ar
    22    38    39   ar
    23    39    40   ar
    24    40    43    1
    25    43    44   ar
    26    44    45   ar
    27    45    46   ar
    28    46    47   ar
    29    47    48   ar
    30    40    41   ar
    31    34    35    1
    32    35    36    1
    33     4     5   ar
    34     5     6   ar
    35    12    13   ar
    36    13    24    1
    37    24    25   ar
    38    25    26   ar
    39    26    27   ar
    40    27    28   ar
    41    28    29   ar
    42    13    14   ar
    43    14    15   ar
    44    15    16   ar
    45    21    22    1
    46    22    23    1
    47    23    18    1
    48    16     7   ar
    49    15    10   ar
    50     6     1   ar
    51    29    24   ar
    52    36    31    1
    53    41    37   ar
    54    48    43   ar
    55    41    42    1
@<TRIPOS>MOLECULE
*****
 48 55 0 0 0
SMALL
GASTEIGER

@<TRIPOS>ATOM
      1 C         140.2281  143.9899  156.6419 C.ar    1  UNL1        0.0191
      2 C         139.0457  143.0761  156.7723 C.ar    1  UNL1        0.0013
      3 C         139.2101  141.7208  157.3936 C.ar    1  UNL1       -0.0029
      4 C         140.5570  141.2791  157.8845 C.ar    1  UNL1       -0.0061
      5 C         141.7394  142.1928  157.7541 C.ar    1  UNL1       -0.0029
      6 C         141.5750  143.5482  157.1328 C.ar    1  UNL1        0.0013
      7 C         138.8865  150.5075  154.9186 C.ar    1  UNL1        0.1335
      8 C         138.3671  150.2485  156.3018 C.ar    1  UNL1        0.0360
      9 C         138.5316  148.8932  156.9230 C.ar    1  UNL1        0.0251
     10 C         139.2154  147.7969  156.1612 C.ar    1  UNL1        0.1171
     11 N         139.3798  146.4415  156.7825 N.ar    1  UNL1       -0.2407
     12 C         140.0637  145.3452  156.0207 C.ar    1  UNL1        0.0989
     13 C         140.5831  145.6042  154.6375 C.ar    1  UNL1        0.1005
     14 N         140.4187  146.9596  154.0162 N.ar    1  UNL1       -0.2237
     15 C         139.7348  148.0559  154.7780 C.ar    1  UNL1        0.1814
     16 N         139.5704  149.4112  154.1568 N.ar    1  UNL1       -0.2104
     17 C         138.2288  155.9289  152.4334 C.3     1  UNL1        0.0897
     18 N         138.3933  154.5736  153.0547 N.3     1  UNL1       -0.2686
     19 C         138.6358  153.3749  152.1862 C.3     1  UNL1        0.0939
     20 C         138.8002  152.0195  152.8076 C.3     1  UNL1        0.1095
     21 N         138.7221  151.8629  154.2973 N.pl3   1  UNL1       -0.2903
     22 C         138.4796  153.0616  155.1658 C.3     1  UNL1        0.1095
     23 C         138.3152  154.4170  154.5445 C.3     1  UNL1        0.0939
     24 C         141.2669  144.5079  153.8756 C.ar    1  UNL1        0.0192
     25 C         140.4543  143.4348  153.2136 C.ar    1  UNL1        0.0015
     26 C         141.1381  142.3385  152.4518 C.ar    1  UNL1        0.0000
     27 C         142.6346  142.3153  152.3519 C.ar    1  UNL1        0.0000
     28 C         143.4472  143.3883  153.0138 C.ar    1  UNL1        0.0000
     29 C         142.7634  144.4846  153.7757 C.ar    1  UNL1        0.0015
     30 C         140.7214  139.9238  158.5057 C.3     1  UNL1        0.0991
     31 N         141.0663  139.8025  159.9606 N.3     1  UNL1       -0.2689
     32 C         141.3985  138.4607  160.5432 C.3     1  UNL1        0.0728
     33 C         141.7434  138.3393  161.9979 C.3     1  UNL1        0.0249
     34 C         141.7561  139.5596  162.8700 C.3     1  UNL1        0.0613
     35 C         141.4239  140.9014  162.2874 C.3     1  UNL1        0.0249
     36 C         141.0790  141.0228  160.8327 C.3     1  UNL1        0.0728
     37 C         142.1010  139.4383  164.3248 C.ar    1  UNL1        0.1396
     38 N         143.3430  138.8130  164.8873 N.ar    1  UNL1       -0.1335
     39 N         143.2740  138.9092  166.3826 N.ar    1  UNL1       -0.1277
     40 C         141.9893  139.5939  166.7443 C.ar    1  UNL1        0.1807
     41 N         141.2643  139.9209  165.4725 N.ar    1  UNL1       -0.3234
     42 H         140.3925  140.3728  165.4032 H       1  UNL1        0.1686
     43 C         141.5132  139.8981  168.1338 C.ar    1  UNL1        0.1169
     44 C         142.5044  140.0567  169.2483 C.ar    1  UNL1        0.0223
     45 C         142.0283  140.3610  170.6378 C.ar    1  UNL1        0.0032
     46 C         140.5609  140.5067  170.9128 C.ar    1  UNL1        0.0207
     47 C         139.5697  140.3481  169.7983 C.ar    1  UNL1        0.0989
     48 N         140.0458  140.0438  168.4088 N.ar    1  UNL1       -0.2407
@<TRIPOS>BOND
     1    17    18    1
     2    18    19    1
     3    19    20    1
     4    20    21    1
     5    21     7    1
     6     7     8   ar
     7     8     9   ar
     8     9    10   ar
     9    10    11   ar
    10    11    12   ar
    11    12     1    1
    12     1     2   ar
    13     2     3   ar
    14     3     4   ar
    15     4    30    1
    16    30    31    1
    17    31    32    1
    18    32    33    1
    19    33    34    1
    20    34    37    1
    21    37    38   ar
    22    38    39   ar
    23    39    40   ar
    24    40    43    1
    25    43    44   ar
    26    44    45   ar
    27    45    46   ar
    28    46    47   ar
    29    47    48   ar
    30    40    41   ar
    31    34    35    1
    32    35    36    1
    33     4     5   ar
    34     5     6   ar
    35    12    13   ar
    36    13    24    1
    37    24    25   ar
    38    25    26   ar
    39    26    27   ar
    40    27    28   ar
    41    28    29   ar
    42    13    14   ar
    43    14    15   ar
    44    15    16   ar
    45    21    22    1
    46    22    23    1
    47    23    18    1
    48    16     7   ar
    49    15    10   ar
    50     6     1   ar
    51    29    24   ar
    52    36    31    1
    53    41    37   ar
    54    48    43   ar
    55    41    42    1
