@<TRIPOS>MOLECULE
*****
 21 23 0 0 0
SMALL
GASTEIGER

@<TRIPOS>ATOM
      1 C         137.9163  140.5134  163.1638 C.3     1  UNL1        0.0766
      2 C         138.3372  139.1643  163.6667 C.3     1  UNL1        0.0209
      3 C         139.1764  139.0539  164.9050 C.3     1  UNL1        0.0104
      4 C         139.5947  140.2924  165.6405 C.3     1  UNL1        0.0444
      5 C         139.1738  141.6415  165.1376 C.ar    1  UNL1       -0.0211
      6 C         139.5922  142.8801  165.8731 C.ar    1  UNL1       -0.0042
      7 C         139.1713  144.2291  165.3703 C.ar    1  UNL1       -0.0003
      8 C         138.3320  144.3396  164.1319 C.ar    1  UNL1       -0.0003
      9 C         137.9137  143.1010  163.3964 C.ar    1  UNL1       -0.0033
     10 C         138.3346  141.7520  163.8993 C.ar    1  UNL1       -0.0117
     11 C         140.4340  140.1819  166.8788 C.ar    1  UNL1       -0.0175
     12 C         141.9292  140.1343  166.7697 C.ar    1  UNL1       -0.0030
     13 C         142.7685  140.0238  168.0080 C.ar    1  UNL1        0.0119
     14 C         142.1125  139.9609  169.3555 C.ar    1  UNL1        0.0682
     15 CL        142.9517  139.8504  170.5938 Cl      1  UNL1       -0.0814
     16 C         140.6171  140.0085  169.4646 C.ar    1  UNL1        0.0679
     17 CL        139.9611  139.9456  170.8121 Cl      1  UNL1       -0.0814
     18 C         139.7779  140.1190  168.2263 C.ar    1  UNL1        0.0083
     19 C         137.4744  139.8854  160.6818 C.3     1  UNL1        0.0861
     20 N         137.0770  140.6239  161.9255 N.3     1  UNL1       -0.2940
     21 H         136.1420  140.3007  162.1737 H       1  UNL1        0.1235
@<TRIPOS>BOND
     1    19    20    1
     2     1    20    1
     3     1     2    1
     4     2     3    1
     5     3     4    1
     6     4    11    1
     7    11    12   ar
     8    12    13   ar
     9    13    14   ar
    10    14    15    1
    11    14    16   ar
    12    16    17    1
    13    16    18   ar
    14     4     5    1
    15     5     6   ar
    16     6     7   ar
    17     7     8   ar
    18     8     9   ar
    19     9    10   ar
    20    10     1    1
    21    18    11   ar
    22    10     5   ar
    23    20    21    1
@<TRIPOS>MOLECULE
*****
 21 23 0 0 0
SMALL
GASTEIGER

@<TRIPOS>ATOM
      1 C         140.5515  145.0813  163.4953 C.3     1  UNL1        0.0766
      2 C         139.2448  144.9299  164.2160 C.3     1  UNL1        0.0209
      3 C         139.1451  144.0214  165.4054 C.3     1  UNL1        0.0104
      4 C         140.3521  143.2643  165.8741 C.3     1  UNL1        0.0444
      5 C         141.6590  143.4156  165.1535 C.ar    1  UNL1       -0.0211
      6 C         142.8660  142.6585  165.6222 C.ar    1  UNL1       -0.0042
      7 C         144.1728  142.8100  164.9016 C.ar    1  UNL1       -0.0003
      8 C         144.2725  143.7185  163.7122 C.ar    1  UNL1       -0.0003
      9 C         143.0655  144.4756  163.2434 C.ar    1  UNL1       -0.0033
     10 C         141.7587  144.3242  163.9641 C.ar    1  UNL1       -0.0117
     11 C         140.2524  142.3557  167.0635 C.ar    1  UNL1       -0.0175
     12 C         139.8658  140.9182  166.8789 C.ar    1  UNL1       -0.0030
     13 C         139.7661  140.0097  168.0683 C.ar    1  UNL1        0.0119
     14 C         140.0529  140.5387  169.4423 C.ar    1  UNL1        0.0682
     15 CL        139.9532  139.6302  170.6317 Cl      1  UNL1       -0.0814
     16 C         140.4396  141.9763  169.6269 C.ar    1  UNL1        0.0679
     17 CL        140.7264  142.5052  171.0009 Cl      1  UNL1       -0.0814
     18 C         140.5393  142.8848  168.4375 C.ar    1  UNL1        0.0083
     19 C         140.2633  145.4901  160.9459 C.3     1  UNL1        0.0861
     20 N         140.6513  145.9898  162.3059 N.3     1  UNL1       -0.2940
     21 H         140.0606  146.7978  162.5023 H       1  UNL1        0.1235
@<TRIPOS>BOND
     1    19    20    1
     2     1    20    1
     3     1     2    1
     4     2     3    1
     5     3     4    1
     6     4    11    1
     7    11    12   ar
     8    12    13   ar
     9    13    14   ar
    10    14    15    1
    11    14    16   ar
    12    16    17    1
    13    16    18   ar
    14     4     5    1
    15     5     6   ar
    16     6     7   ar
    17     7     8   ar
    18     8     9   ar
    19     9    10   ar
    20    10     1    1
    21    18    11   ar
    22    10     5   ar
    23    20    21    1
@<TRIPOS>MOLECULE
*****
 21 23 0 0 0
SMALL
GASTEIGER

@<TRIPOS>ATOM
      1 C         143.0255  138.3679  163.0685 C.3     1  UNL1        0.0766
      2 C         144.1175  139.0343  163.8517 C.3     1  UNL1        0.0209
      3 C         143.8282  139.5991  165.2109 C.3     1  UNL1        0.0104
      4 C         142.4469  139.4975  165.7868 C.3     1  UNL1        0.0444
      5 C         141.3549  138.8311  165.0036 C.ar    1  UNL1       -0.0211
      6 C         139.9736  138.7294  165.5795 C.ar    1  UNL1       -0.0042
      7 C         138.8817  138.0630  164.7963 C.ar    1  UNL1       -0.0003
      8 C         139.1710  137.4982  163.4372 C.ar    1  UNL1       -0.0003
      9 C         140.5523  137.5998  162.8612 C.ar    1  UNL1       -0.0033
     10 C         141.6442  138.2662  163.6445 C.ar    1  UNL1       -0.0117
     11 C         142.1576  140.0624  167.1459 C.ar    1  UNL1       -0.0175
     12 C         142.5719  139.3089  168.3750 C.ar    1  UNL1       -0.0030
     13 C         142.2826  139.8738  169.7341 C.ar    1  UNL1        0.0119
     14 C         141.5789  141.1920  169.8642 C.ar    1  UNL1        0.0682
     15 CL        141.2896  141.7569  171.2234 Cl      1  UNL1       -0.0814
     16 C         141.1646  141.9456  168.6351 C.ar    1  UNL1        0.0679
     17 CL        140.4609  143.2638  168.7652 Cl      1  UNL1       -0.0814
     18 C         141.4539  141.3807  167.2760 C.ar    1  UNL1        0.0083
     19 C         143.8083  138.7007  160.6137 C.3     1  UNL1        0.0861
     20 N         143.3149  137.8030  161.7094 N.3     1  UNL1       -0.2940
     21 H         144.0207  137.0777  161.8361 H       1  UNL1        0.1235
@<TRIPOS>BOND
     1    19    20    1
     2     1    20    1
     3     1     2    1
     4     2     3    1
     5     3     4    1
     6     4    11    1
     7    11    12   ar
     8    12    13   ar
     9    13    14   ar
    10    14    15    1
    11    14    16   ar
    12    16    17    1
    13    16    18   ar
    14     4     5    1
    15     5     6   ar
    16     6     7   ar
    17     7     8   ar
    18     8     9   ar
    19     9    10   ar
    20    10     1    1
    21    18    11   ar
    22    10     5   ar
    23    20    21    1
@<TRIPOS>MOLECULE
*****
 21 23 0 0 0
SMALL
GASTEIGER

@<TRIPOS>ATOM
      1 C         139.9004  140.7106  168.4496 C.3     1  UNL1        0.0766
      2 C         140.4350  142.1075  168.5615 C.3     1  UNL1        0.0209
      3 C         140.4760  142.9940  167.3522 C.3     1  UNL1        0.0104
      4 C         139.9824  142.4836  166.0310 C.3     1  UNL1        0.0444
      5 C         139.4478  141.0865  165.9190 C.ar    1  UNL1       -0.0211
      6 C         138.9542  140.5760  164.5978 C.ar    1  UNL1       -0.0042
      7 C         138.4196  139.1790  164.4858 C.ar    1  UNL1       -0.0003
      8 C         138.3786  138.2925  165.6951 C.ar    1  UNL1       -0.0003
      9 C         138.8722  138.8030  167.0164 C.ar    1  UNL1       -0.0033
     10 C         139.4068  140.2000  167.1283 C.ar    1  UNL1       -0.0117
     11 C         140.0234  143.3701  164.8217 C.ar    1  UNL1       -0.0175
     12 C         138.8054  144.1481  164.4205 C.ar    1  UNL1       -0.0030
     13 C         138.8464  145.0347  163.2112 C.ar    1  UNL1        0.0119
     14 C         140.1054  145.1431  162.4030 C.ar    1  UNL1        0.0682
     15 CL        140.1464  146.0296  161.1937 Cl      1  UNL1       -0.0814
     16 C         141.3235  144.3650  162.8042 C.ar    1  UNL1        0.0679
     17 CL        142.5825  144.4734  161.9961 Cl      1  UNL1       -0.0814
     18 C         141.2825  143.4785  164.0135 C.ar    1  UNL1        0.0083
     19 C         140.5133  140.2652  170.9347 C.3     1  UNL1        0.0861
     20 N         139.8594  139.8240  169.6589 N.3     1  UNL1       -0.2940
     21 H         138.8751  139.6632  169.8728 H       1  UNL1        0.1235
@<TRIPOS>BOND
     1    19    20    1
     2     1    20    1
     3     1     2    1
     4     2     3    1
     5     3     4    1
     6     4    11    1
     7    11    12   ar
     8    12    13   ar
     9    13    14   ar
    10    14    15    1
    11    14    16   ar
    12    16    17    1
    13    16    18   ar
    14     4     5    1
    15     5     6   ar
    16     6     7   ar
    17     7     8   ar
    18     8     9   ar
    19     9    10   ar
    20    10     1    1
    21    18    11   ar
    22    10     5   ar
    23    20    21    1
@<TRIPOS>MOLECULE
*****
 21 23 0 0 0
SMALL
GASTEIGER

@<TRIPOS>ATOM
      1 C         142.7608  138.2470  162.9268 C.3     1  UNL1        0.0766
      2 C         141.7270  137.6073  163.8053 C.3     1  UNL1        0.0209
      3 C         141.4009  138.2088  165.1402 C.3     1  UNL1        0.0104
      4 C         142.1087  139.4500  165.5965 C.3     1  UNL1        0.0444
      5 C         143.1427  140.0898  164.7180 C.ar    1  UNL1       -0.0211
      6 C         143.8505  141.3310  165.1743 C.ar    1  UNL1       -0.0042
      7 C         144.8843  141.9707  164.2958 C.ar    1  UNL1       -0.0003
      8 C         145.2104  141.3692  162.9610 C.ar    1  UNL1       -0.0003
      9 C         144.5026  140.1280  162.5046 C.ar    1  UNL1       -0.0033
     10 C         143.4687  139.4883  163.3831 C.ar    1  UNL1       -0.0117
     11 C         141.7827  140.0515  166.9314 C.ar    1  UNL1       -0.0175
     12 C         140.6641  141.0433  167.0540 C.ar    1  UNL1       -0.0030
     13 C         140.3381  141.6449  168.3889 C.ar    1  UNL1        0.0119
     14 C         141.1306  141.2546  169.6011 C.ar    1  UNL1        0.0682
     15 CL        140.8045  141.8561  170.9360 Cl      1  UNL1       -0.0814
     16 C         142.2492  140.2627  169.4785 C.ar    1  UNL1        0.0679
     17 CL        143.0417  139.8725  170.6908 Cl      1  UNL1       -0.0814
     18 C         142.5753  139.6612  168.1437 C.ar    1  UNL1        0.0083
     19 C         142.2755  138.0133  160.3852 C.3     1  UNL1        0.0861
     20 N         143.0869  137.6454  161.5919 N.3     1  UNL1       -0.2940
     21 H         144.0536  137.8960  161.3843 H       1  UNL1        0.1235
@<TRIPOS>BOND
     1    19    20    1
     2     1    20    1
     3     1     2    1
     4     2     3    1
     5     3     4    1
     6     4    11    1
     7    11    12   ar
     8    12    13   ar
     9    13    14   ar
    10    14    15    1
    11    14    16   ar
    12    16    17    1
    13    16    18   ar
    14     4     5    1
    15     5     6   ar
    16     6     7   ar
    17     7     8   ar
    18     8     9   ar
    19     9    10   ar
    20    10     1    1
    21    18    11   ar
    22    10     5   ar
    23    20    21    1
@<TRIPOS>MOLECULE
*****
 21 23 0 0 0
SMALL
GASTEIGER

@<TRIPOS>ATOM
      1 C         141.6593  140.4900  168.5388 C.3     1  UNL1        0.0766
      2 C         140.8477  141.7275  168.7834 C.3     1  UNL1        0.0209
      3 C         140.5502  142.6653  167.6512 C.3     1  UNL1        0.0104
      4 C         141.0643  142.3656  166.2743 C.3     1  UNL1        0.0444
      5 C         141.8760  141.1281  166.0296 C.ar    1  UNL1       -0.0211
      6 C         142.3900  140.8284  164.6527 C.ar    1  UNL1       -0.0042
      7 C         143.2016  139.5910  164.4080 C.ar    1  UNL1       -0.0003
      8 C         143.4991  138.6531  165.5403 C.ar    1  UNL1       -0.0003
      9 C         142.9850  138.9528  166.9172 C.ar    1  UNL1       -0.0033
     10 C         142.1735  140.1903  167.1618 C.ar    1  UNL1       -0.0117
     11 C         140.7668  143.3035  165.1421 C.ar    1  UNL1       -0.0175
     12 C         141.8687  144.1214  164.5365 C.ar    1  UNL1       -0.0030
     13 C         141.5712  145.0593  163.4042 C.ar    1  UNL1        0.0119
     14 C         140.1718  145.1792  162.8776 C.ar    1  UNL1        0.0682
     15 CL        139.8743  146.1170  161.7454 Cl      1  UNL1       -0.0814
     16 C         139.0699  144.3612  163.4832 C.ar    1  UNL1        0.0679
     17 CL        137.6705  144.4811  162.9566 Cl      1  UNL1       -0.0814
     18 C         139.3674  143.4233  164.6155 C.ar    1  UNL1        0.0083
     19 C         142.9944  139.9142  170.6919 C.3     1  UNL1        0.0861
     20 N         141.9568  139.5521  169.6710 N.3     1  UNL1       -0.2940
     21 H         141.0818  139.4141  170.1767 H       1  UNL1        0.1235
@<TRIPOS>BOND
     1    19    20    1
     2     1    20    1
     3     1     2    1
     4     2     3    1
     5     3     4    1
     6     4    11    1
     7    11    12   ar
     8    12    13   ar
     9    13    14   ar
    10    14    15    1
    11    14    16   ar
    12    16    17    1
    13    16    18   ar
    14     4     5    1
    15     5     6   ar
    16     6     7   ar
    17     7     8   ar
    18     8     9   ar
    19     9    10   ar
    20    10     1    1
    21    18    11   ar
    22    10     5   ar
    23    20    21    1
@<TRIPOS>MOLECULE
*****
 21 23 0 0 0
SMALL
GASTEIGER

@<TRIPOS>ATOM
      1 C         144.1661  140.0737  163.1298 C.3     1  UNL1        0.0766
      2 C         143.6360  139.1815  164.2128 C.3     1  UNL1        0.0209
      3 C         142.9814  139.7786  165.4231 C.3     1  UNL1        0.0104
      4 C         142.8571  141.2680  165.5506 C.3     1  UNL1        0.0444
      5 C         143.3873  142.1603  164.4676 C.ar    1  UNL1       -0.0211
      6 C         143.2630  143.6497  164.5951 C.ar    1  UNL1       -0.0042
      7 C         143.7931  144.5419  163.5121 C.ar    1  UNL1       -0.0003
      8 C         144.4477  143.9447  162.3018 C.ar    1  UNL1       -0.0003
      9 C         144.5720  142.4554  162.1743 C.ar    1  UNL1       -0.0033
     10 C         144.0418  141.5632  163.2572 C.ar    1  UNL1       -0.0117
     11 C         142.2026  141.8651  166.7610 C.ar    1  UNL1       -0.0175
     12 C         140.7467  142.2242  166.7260 C.ar    1  UNL1       -0.0030
     13 C         140.0921  142.8214  167.9364 C.ar    1  UNL1        0.0119
     14 C         140.8936  143.0594  169.1818 C.ar    1  UNL1        0.0682
     15 CL        140.2390  143.6565  170.3921 Cl      1  UNL1       -0.0814
     16 C         142.3496  142.7003  169.2168 C.ar    1  UNL1        0.0679
     17 CL        143.1510  142.9383  170.4622 Cl      1  UNL1       -0.0814
     18 C         143.0041  142.1032  168.0064 C.ar    1  UNL1        0.0083
     19 C         143.9864  139.0591  160.7449 C.3     1  UNL1        0.0861
     20 N         144.8207  139.4766  161.9194 N.3     1  UNL1       -0.2940
     21 H         145.4889  140.1662  161.5757 H       1  UNL1        0.1235
@<TRIPOS>BOND
     1    19    20    1
     2     1    20    1
     3     1     2    1
     4     2     3    1
     5     3     4    1
     6     4    11    1
     7    11    12   ar
     8    12    13   ar
     9    13    14   ar
    10    14    15    1
    11    14    16   ar
    12    16    17    1
    13    16    18   ar
    14     4     5    1
    15     5     6   ar
    16     6     7   ar
    17     7     8   ar
    18     8     9   ar
    19     9    10   ar
    20    10     1    1
    21    18    11   ar
    22    10     5   ar
    23    20    21    1
@<TRIPOS>MOLECULE
*****
 21 23 0 0 0
SMALL
GASTEIGER

@<TRIPOS>ATOM
      1 C         138.6487  139.5235  167.3406 C.3     1  UNL1        0.0766
      2 C         138.8014  139.4807  165.8490 C.3     1  UNL1        0.0209
      3 C         139.7189  140.4476  165.1610 C.3     1  UNL1        0.0104
      4 C         140.4836  141.4573  165.9645 C.3     1  UNL1        0.0444
      5 C         140.3308  141.5001  167.4561 C.ar    1  UNL1       -0.0211
      6 C         141.0955  142.5099  168.2596 C.ar    1  UNL1       -0.0042
      7 C         140.9428  142.5527  169.7512 C.ar    1  UNL1       -0.0003
      8 C         140.0254  141.5857  170.4392 C.ar    1  UNL1       -0.0003
      9 C         139.2607  140.5760  169.6357 C.ar    1  UNL1       -0.0033
     10 C         139.4134  140.5332  168.1442 C.ar    1  UNL1       -0.0117
     11 C         141.4010  142.4242  165.2764 C.ar    1  UNL1       -0.0175
     12 C         142.8873  142.2500  165.3785 C.ar    1  UNL1       -0.0030
     13 C         143.8048  143.2170  164.6904 C.ar    1  UNL1        0.0119
     14 C         143.2359  144.3580  163.9004 C.ar    1  UNL1        0.0682
     15 CL        144.1533  145.3249  163.2123 Cl      1  UNL1       -0.0814
     16 C         141.7495  144.5323  163.7983 C.ar    1  UNL1        0.0679
     17 CL        141.1806  145.6733  163.0082 Cl      1  UNL1       -0.0814
     18 C         140.8320  143.5654  164.4863 C.ar    1  UNL1        0.0083
     19 C         137.1191  137.4251  167.2573 C.3     1  UNL1        0.0861
     20 N         137.7313  138.5566  168.0286 N.3     1  UNL1       -0.2940
     21 H         138.2629  138.1388  168.7923 H       1  UNL1        0.1235
@<TRIPOS>BOND
     1    19    20    1
     2     1    20    1
     3     1     2    1
     4     2     3    1
     5     3     4    1
     6     4    11    1
     7    11    12   ar
     8    12    13   ar
     9    13    14   ar
    10    14    15    1
    11    14    16   ar
    12    16    17    1
    13    16    18   ar
    14     4     5    1
    15     5     6   ar
    16     6     7   ar
    17     7     8   ar
    18     8     9   ar
    19     9    10   ar
    20    10     1    1
    21    18    11   ar
    22    10     5   ar
    23    20    21    1
@<TRIPOS>MOLECULE
*****
 21 23 0 0 0
SMALL
GASTEIGER

@<TRIPOS>ATOM
      1 C         139.8274  138.3582  162.9991 C.3     1  UNL1        0.0766
      2 C         138.5728  138.7114  163.7414 C.3     1  UNL1        0.0209
      3 C         138.6533  139.4767  165.0289 C.3     1  UNL1        0.0104
      4 C         139.9884  139.8889  165.5742 C.3     1  UNL1        0.0444
      5 C         141.2432  139.5357  164.8319 C.ar    1  UNL1       -0.0211
      6 C         142.5784  139.9479  165.3771 C.ar    1  UNL1       -0.0042
      7 C         143.8331  139.5948  164.6349 C.ar    1  UNL1       -0.0003
      8 C         143.7526  138.8294  163.3473 C.ar    1  UNL1       -0.0003
      9 C         142.4174  138.4172  162.8021 C.ar    1  UNL1       -0.0033
     10 C         141.1627  138.7704  163.5443 C.ar    1  UNL1       -0.0117
     11 C         140.0690  140.6543  166.8617 C.ar    1  UNL1       -0.0175
     12 C         140.3267  142.1318  166.8411 C.ar    1  UNL1       -0.0030
     13 C         140.4072  142.8971  168.1286 C.ar    1  UNL1        0.0119
     14 C         140.2300  142.1850  169.4368 C.ar    1  UNL1        0.0682
     15 CL        140.3105  142.9503  170.7243 Cl      1  UNL1       -0.0814
     16 C         139.9722  140.7074  169.4575 C.ar    1  UNL1        0.0679
     17 CL        139.7950  139.9952  170.7656 Cl      1  UNL1       -0.0814
     18 C         139.8917  139.9420  168.1699 C.ar    1  UNL1        0.0083
     19 C         139.4673  138.3142  160.4265 C.3     1  UNL1        0.0861
     20 N         139.7469  137.5928  161.7115 N.3     1  UNL1       -0.2940
     21 H         140.6424  137.1188  161.5943 H       1  UNL1        0.1235
@<TRIPOS>BOND
     1    19    20    1
     2     1    20    1
     3     1     2    1
     4     2     3    1
     5     3     4    1
     6     4    11    1
     7    11    12   ar
     8    12    13   ar
     9    13    14   ar
    10    14    15    1
    11    14    16   ar
    12    16    17    1
    13    16    18   ar
    14     4     5    1
    15     5     6   ar
    16     6     7   ar
    17     7     8   ar
    18     8     9   ar
    19     9    10   ar
    20    10     1    1
    21    18    11   ar
    22    10     5   ar
    23    20    21    1
