@<TRIPOS>MOLECULE
*****
 19 20 0 0 0
SMALL
GASTEIGER

@<TRIPOS>ATOM
      1 C         141.3861  144.4490  164.0040 C.ar    1  UNL1        0.0282
      2 C         142.5403  145.3602  163.7082 C.ar    1  UNL1        0.0001
      3 C         143.9443  144.9011  163.9689 C.ar    1  UNL1       -0.0001
      4 C         144.1942  143.5308  164.5255 C.ar    1  UNL1        0.0031
      5 C         143.0400  142.6196  164.8213 C.ar    1  UNL1        0.0372
      6 C         141.6360  143.0787  164.5606 C.ar    1  UNL1        0.1426
      7 C         139.9821  144.9081  163.7433 C.3     1  UNL1        0.0987
      8 C         137.7452  144.2216  164.8724 C.3     1  UNL1        0.0861
      9 N         139.0095  145.0288  164.8788 N.3     1  UNL1       -0.2925
     10 H         139.5154  144.7769  165.7279 H       1  UNL1        0.1236
     11 O         140.4818  142.1674  164.8564 O.3     1  UNL1       -0.4537
     12 C         140.2281  141.7106  166.2624 C.ar    1  UNL1        0.1462
     13 C         139.7007  140.3300  166.5189 C.ar    1  UNL1        0.0384
     14 C         139.4470  139.8732  167.9249 C.ar    1  UNL1        0.0154
     15 C         139.7207  140.7970  169.0745 C.ar    1  UNL1        0.0684
     16 CL        139.4671  140.3402  170.4806 Cl      1  UNL1       -0.0814
     17 C         140.2481  142.1776  168.8182 C.ar    1  UNL1        0.0712
     18 CL        140.5219  143.1013  169.9678 Cl      1  UNL1       -0.0813
     19 C         140.5019  142.6344  167.4121 C.ar    1  UNL1        0.0497
@<TRIPOS>BOND
     1     8     9    1
     2     9     7    1
     3     7     1    1
     4     1     2   ar
     5     2     3   ar
     6     3     4   ar
     7     4     5   ar
     8     5     6   ar
     9     6    11    1
    10    11    12    1
    11    12    13   ar
    12    13    14   ar
    13    14    15   ar
    14    15    16    1
    15    15    17   ar
    16    17    18    1
    17    17    19   ar
    18     6     1   ar
    19    19    12   ar
    20     9    10    1
@<TRIPOS>MOLECULE
*****
 19 20 0 0 0
SMALL
GASTEIGER

@<TRIPOS>ATOM
      1 C         140.2865  137.7478  164.8282 C.ar    1  UNL1        0.0282
      2 C         138.8609  137.5157  165.2330 C.ar    1  UNL1        0.0001
      3 C         138.1797  138.4750  166.1634 C.ar    1  UNL1       -0.0001
      4 C         138.9241  139.6665  166.6890 C.ar    1  UNL1        0.0031
      5 C         140.3496  139.8986  166.2842 C.ar    1  UNL1        0.0372
      6 C         141.0308  138.9393  165.3538 C.ar    1  UNL1        0.1426
      7 C         140.9676  136.7885  163.8978 C.3     1  UNL1        0.0987
      8 C         140.4456  138.0781  161.7037 C.3     1  UNL1        0.0861
      9 N         141.3760  137.2364  162.5258 N.3     1  UNL1       -0.2925
     10 H         142.2378  137.7709  162.6349 H       1  UNL1        0.1236
     11 O         142.4564  139.1715  164.9490 O.3     1  UNL1       -0.4537
     12 C         142.8770  140.5100  164.4187 C.ar    1  UNL1        0.1462
     13 C         142.5700  140.8845  162.9990 C.ar    1  UNL1        0.0384
     14 C         142.9906  142.2231  162.4687 C.ar    1  UNL1        0.0154
     15 C         143.7181  143.1873  163.3581 C.ar    1  UNL1        0.0684
     16 CL        144.1387  144.5259  162.8278 Cl      1  UNL1       -0.0814
     17 C         144.0251  142.8129  164.7778 C.ar    1  UNL1        0.0712
     18 CL        144.7527  143.7770  165.6672 Cl      1  UNL1       -0.0813
     19 C         143.6045  141.4742  165.3081 C.ar    1  UNL1        0.0497
@<TRIPOS>BOND
     1     8     9    1
     2     9     7    1
     3     7     1    1
     4     1     2   ar
     5     2     3   ar
     6     3     4   ar
     7     4     5   ar
     8     5     6   ar
     9     6    11    1
    10    11    12    1
    11    12    13   ar
    12    13    14   ar
    13    14    15   ar
    14    15    16    1
    15    15    17   ar
    16    17    18    1
    17    17    19   ar
    18     6     1   ar
    19    19    12   ar
    20     9    10    1
@<TRIPOS>MOLECULE
*****
 19 20 0 0 0
SMALL
GASTEIGER

@<TRIPOS>ATOM
      1 C         138.5019  141.7178  164.2990 C.ar    1  UNL1        0.0282
      2 C         137.5179  142.7331  163.7982 C.ar    1  UNL1        0.0001
      3 C         137.7413  144.1914  164.0692 C.ar    1  UNL1       -0.0001
      4 C         138.9488  144.6344  164.8410 C.ar    1  UNL1        0.0031
      5 C         139.9328  143.6192  165.3417 C.ar    1  UNL1        0.0372
      6 C         139.7094  142.1609  165.0707 C.ar    1  UNL1        0.1426
      7 C         138.2785  140.2595  164.0280 C.3     1  UNL1        0.0987
      8 C         138.9762  137.9721  165.0432 C.3     1  UNL1        0.0861
      9 N         138.2533  139.2808  165.1643 N.3     1  UNL1       -0.2925
     10 H         138.6458  139.7602  165.9746 H       1  UNL1        0.1236
     11 O         140.6936  141.1456  165.5715 O.3     1  UNL1       -0.4537
     12 C         141.0134  141.0695  167.0350 C.ar    1  UNL1        0.1462
     13 C         140.0941  140.3366  167.9666 C.ar    1  UNL1        0.0384
     14 C         140.4139  140.2604  169.4300 C.ar    1  UNL1        0.0154
     15 C         141.6532  140.9171  169.9621 C.ar    1  UNL1        0.0684
     16 CL        141.9731  140.8410  171.4255 Cl      1  UNL1       -0.0814
     17 C         142.5725  141.6500  169.0306 C.ar    1  UNL1        0.0712
     18 CL        143.8118  142.3067  169.5626 Cl      1  UNL1       -0.0813
     19 C         142.2527  141.7262  167.5670 C.ar    1  UNL1        0.0497
@<TRIPOS>BOND
     1     8     9    1
     2     9     7    1
     3     7     1    1
     4     1     2   ar
     5     2     3   ar
     6     3     4   ar
     7     4     5   ar
     8     5     6   ar
     9     6    11    1
    10    11    12    1
    11    12    13   ar
    12    13    14   ar
    13    14    15   ar
    14    15    16    1
    15    15    17   ar
    16    17    18    1
    17    17    19   ar
    18     6     1   ar
    19    19    12   ar
    20     9    10    1
@<TRIPOS>MOLECULE
*****
 19 20 0 0 0
SMALL
GASTEIGER

@<TRIPOS>ATOM
      1 C         142.1853  141.5979  167.9083 C.ar    1  UNL1        0.0282
      2 C         143.0610  141.8734  169.0945 C.ar    1  UNL1        0.0001
      3 C         142.6063  142.8306  170.1562 C.ar    1  UNL1       -0.0001
      4 C         141.2760  143.5122  170.0317 C.ar    1  UNL1        0.0031
      5 C         140.4003  143.2367  168.8454 C.ar    1  UNL1        0.0372
      6 C         140.8550  142.2795  167.7837 C.ar    1  UNL1        0.1426
      7 C         142.6400  140.6408  166.8466 C.3     1  UNL1        0.0987
      8 C         142.1412  138.6373  165.2695 C.3     1  UNL1        0.0861
      9 N         141.7488  139.5106  166.4242 N.3     1  UNL1       -0.2925
     10 H         141.6450  138.8990  167.2339 H       1  UNL1        0.1236
     11 O         139.9792  142.0040  166.5974 O.3     1  UNL1       -0.4537
     12 C         139.9009  142.9974  165.4762 C.ar    1  UNL1        0.1462
     13 C         138.5703  143.3568  164.8842 C.ar    1  UNL1        0.0384
     14 C         138.4919  144.3502  163.7630 C.ar    1  UNL1        0.0154
     15 C         139.7441  144.9841  163.2338 C.ar    1  UNL1        0.0684
     16 CL        139.6658  145.9774  162.1126 Cl      1  UNL1       -0.0814
     17 C         141.0747  144.6247  163.8257 C.ar    1  UNL1        0.0712
     18 CL        142.3269  145.2586  163.2964 Cl      1  UNL1       -0.0813
     19 C         141.1531  143.6313  164.9469 C.ar    1  UNL1        0.0497
@<TRIPOS>BOND
     1     8     9    1
     2     9     7    1
     3     7     1    1
     4     1     2   ar
     5     2     3   ar
     6     3     4   ar
     7     4     5   ar
     8     5     6   ar
     9     6    11    1
    10    11    12    1
    11    12    13   ar
    12    13    14   ar
    13    14    15   ar
    14    15    16    1
    15    15    17   ar
    16    17    18    1
    17    17    19   ar
    18     6     1   ar
    19    19    12   ar
    20     9    10    1
@<TRIPOS>MOLECULE
*****
 19 20 0 0 0
SMALL
GASTEIGER

@<TRIPOS>ATOM
      1 C         140.3746  140.5703  167.5400 C.ar    1  UNL1        0.0282
      2 C         139.5391  140.1314  168.7058 C.ar    1  UNL1        0.0001
      3 C         139.3450  141.0483  169.8769 C.ar    1  UNL1       -0.0001
      4 C         139.9864  142.4042  169.8822 C.ar    1  UNL1        0.0031
      5 C         140.8219  142.8432  168.7163 C.ar    1  UNL1        0.0372
      6 C         141.0160  141.9262  167.5452 C.ar    1  UNL1        0.1426
      7 C         140.5687  139.6533  166.3689 C.3     1  UNL1        0.0987
      8 C         143.0165  138.8681  166.7454 C.3     1  UNL1        0.0861
      9 N         141.9476  139.3984  165.8364 N.3     1  UNL1       -0.2925
     10 H         141.8496  138.7274  165.0744 H       1  UNL1        0.1236
     11 O         141.8516  142.3652  166.3794 O.3     1  UNL1       -0.4537
     12 C         141.2539  143.2353  165.3137 C.ar    1  UNL1        0.1462
     13 C         142.1447  144.0544  164.4272 C.ar    1  UNL1        0.0384
     14 C         141.5470  144.9245  163.3616 C.ar    1  UNL1        0.0154
     15 C         140.0587  144.9755  163.1823 C.ar    1  UNL1        0.0684
     16 CL        139.4610  145.8456  162.1166 Cl      1  UNL1       -0.0814
     17 C         139.1679  144.1565  164.0687 C.ar    1  UNL1        0.0712
     18 CL        137.6795  144.2076  163.8894 Cl      1  UNL1       -0.0813
     19 C         139.7655  143.2863  165.1344 C.ar    1  UNL1        0.0497
@<TRIPOS>BOND
     1     8     9    1
     2     9     7    1
     3     7     1    1
     4     1     2   ar
     5     2     3   ar
     6     3     4   ar
     7     4     5   ar
     8     5     6   ar
     9     6    11    1
    10    11    12    1
    11    12    13   ar
    12    13    14   ar
    13    14    15   ar
    14    15    16    1
    15    15    17   ar
    16    17    18    1
    17    17    19   ar
    18     6     1   ar
    19    19    12   ar
    20     9    10    1
@<TRIPOS>MOLECULE
*****
 19 20 0 0 0
SMALL
GASTEIGER

@<TRIPOS>ATOM
      1 C         144.4690  142.0961  163.8350 C.ar    1  UNL1        0.0282
      2 C         144.6185  143.2448  162.8821 C.ar    1  UNL1        0.0001
      3 C         143.6275  144.3706  162.9031 C.ar    1  UNL1       -0.0001
      4 C         142.4869  144.3476  163.8770 C.ar    1  UNL1        0.0031
      5 C         142.3373  143.1989  164.8298 C.ar    1  UNL1        0.0372
      6 C         143.3284  142.0731  164.8088 C.ar    1  UNL1        0.1426
      7 C         145.4600  140.9703  163.8140 C.3     1  UNL1        0.0987
      8 C         144.0653  139.1056  162.6618 C.3     1  UNL1        0.0861
      9 N         144.9806  139.5499  163.7640 N.3     1  UNL1       -0.2925
     10 H         145.8114  138.9604  163.7124 H       1  UNL1        0.1236
     11 O         143.1788  140.9243  165.7618 O.3     1  UNL1       -0.4537
     12 C         141.8182  140.3649  166.0544 C.ar    1  UNL1        0.1462
     13 C         141.0660  140.8194  167.2701 C.ar    1  UNL1        0.0384
     14 C         139.7054  140.2600  167.5628 C.ar    1  UNL1        0.0154
     15 C         139.0968  139.2462  166.6398 C.ar    1  UNL1        0.0684
     16 CL        137.7362  138.6868  166.9325 Cl      1  UNL1       -0.0814
     17 C         139.8489  138.7918  165.4242 C.ar    1  UNL1        0.0712
     18 CL        139.2403  137.7780  164.5012 Cl      1  UNL1       -0.0813
     19 C         141.2096  139.3511  165.1315 C.ar    1  UNL1        0.0497
@<TRIPOS>BOND
     1     8     9    1
     2     9     7    1
     3     7     1    1
     4     1     2   ar
     5     2     3   ar
     6     3     4   ar
     7     4     5   ar
     8     5     6   ar
     9     6    11    1
    10    11    12    1
    11    12    13   ar
    12    13    14   ar
    13    14    15   ar
    14    15    16    1
    15    15    17   ar
    16    17    18    1
    17    17    19   ar
    18     6     1   ar
    19    19    12   ar
    20     9    10    1
@<TRIPOS>MOLECULE
*****
 19 20 0 0 0
SMALL
GASTEIGER

@<TRIPOS>ATOM
      1 C         139.6271  140.4944  167.5036 C.ar    1  UNL1        0.0282
      2 C         139.3328  140.1684  168.9378 C.ar    1  UNL1        0.0001
      3 C         139.6468  141.1657  170.0133 C.ar    1  UNL1       -0.0001
      4 C         140.2549  142.4891  169.6547 C.ar    1  UNL1        0.0031
      5 C         140.5492  142.8152  168.2204 C.ar    1  UNL1        0.0372
      6 C         140.2352  141.8178  167.1449 C.ar    1  UNL1        0.1426
      7 C         139.3131  139.4971  166.4280 C.3     1  UNL1        0.0987
      8 C         138.6646  139.0787  163.9473 C.3     1  UNL1        0.0861
      9 N         138.6176  139.9395  165.1748 N.3     1  UNL1       -0.2925
     10 H         137.6330  140.0610  165.4118 H       1  UNL1        0.1236
     11 O         140.5295  142.1440  165.7106 O.3     1  UNL1       -0.4537
     12 C         141.9316  142.0348  165.1891 C.ar    1  UNL1        0.1462
     13 C         142.6543  143.2619  164.7179 C.ar    1  UNL1        0.0384
     14 C         144.0564  143.1528  164.1964 C.ar    1  UNL1        0.0154
     15 C         144.7360  141.8165  164.1460 C.ar    1  UNL1        0.0684
     16 CL        146.1381  141.7073  163.6244 Cl      1  UNL1       -0.0814
     17 C         144.0134  140.5893  164.6171 C.ar    1  UNL1        0.0712
     18 CL        144.6929  139.2530  164.5666 Cl      1  UNL1       -0.0813
     19 C         142.6112  140.6985  165.1386 C.ar    1  UNL1        0.0497
@<TRIPOS>BOND
     1     8     9    1
     2     9     7    1
     3     7     1    1
     4     1     2   ar
     5     2     3   ar
     6     3     4   ar
     7     4     5   ar
     8     5     6   ar
     9     6    11    1
    10    11    12    1
    11    12    13   ar
    12    13    14   ar
    13    14    15   ar
    14    15    16    1
    15    15    17   ar
    16    17    18    1
    17    17    19   ar
    18     6     1   ar
    19    19    12   ar
    20     9    10    1
@<TRIPOS>MOLECULE
*****
 19 20 0 0 0
SMALL
GASTEIGER

@<TRIPOS>ATOM
      1 C         139.5804  140.4888  167.6829 C.ar    1  UNL1        0.0282
      2 C         139.3662  140.3148  169.1573 C.ar    1  UNL1        0.0001
      3 C         139.7508  141.4114  170.1057 C.ar    1  UNL1       -0.0001
      4 C         140.3496  142.6821  169.5797 C.ar    1  UNL1        0.0031
      5 C         140.5638  142.8562  168.1053 C.ar    1  UNL1        0.0372
      6 C         140.1792  141.7595  167.1570 C.ar    1  UNL1        0.1426
      7 C         139.1958  139.3921  166.7346 C.3     1  UNL1        0.0987
      8 C         138.5917  139.3558  164.2080 C.3     1  UNL1        0.0861
      9 N         138.2206  139.6652  165.6281 N.3     1  UNL1       -0.2925
     10 H         137.3800  139.1264  165.8368 H       1  UNL1        0.1236
     11 O         140.3934  141.9336  165.6825 O.3     1  UNL1       -0.4537
     12 C         141.7809  141.8817  165.1149 C.ar    1  UNL1        0.1462
     13 C         142.6385  140.6718  165.3402 C.ar    1  UNL1        0.0384
     14 C         144.0260  140.6198  164.7726 C.ar    1  UNL1        0.0154
     15 C         144.5559  141.7777  163.9798 C.ar    1  UNL1        0.0684
     16 CL        145.9434  141.7257  163.4122 Cl      1  UNL1       -0.0814
     17 C         143.6983  142.9875  163.7546 C.ar    1  UNL1        0.0712
     18 CL        144.2282  144.1454  162.9618 Cl      1  UNL1       -0.0813
     19 C         142.3108  143.0395  164.3222 C.ar    1  UNL1        0.0497
@<TRIPOS>BOND
     1     8     9    1
     2     9     7    1
     3     7     1    1
     4     1     2   ar
     5     2     3   ar
     6     3     4   ar
     7     4     5   ar
     8     5     6   ar
     9     6    11    1
    10    11    12    1
    11    12    13   ar
    12    13    14   ar
    13    14    15   ar
    14    15    16    1
    15    15    17   ar
    16    17    18    1
    17    17    19   ar
    18     6     1   ar
    19    19    12   ar
    20     9    10    1
@<TRIPOS>MOLECULE
*****
 19 20 0 0 0
SMALL
GASTEIGER

@<TRIPOS>ATOM
      1 C         143.8645  140.0037  164.6601 C.ar    1  UNL1        0.0282
      2 C         145.2260  140.2146  164.0670 C.ar    1  UNL1        0.0001
      3 C         145.6985  141.6020  163.7481 C.ar    1  UNL1       -0.0001
      4 C         144.8094  142.7786  164.0222 C.ar    1  UNL1        0.0031
      5 C         143.4479  142.5677  164.6153 C.ar    1  UNL1        0.0372
      6 C         142.9755  141.1802  164.9343 C.ar    1  UNL1        0.1426
      7 C         143.3921  138.6162  164.9790 C.3     1  UNL1        0.0987
      8 C         141.8381  137.8710  163.0349 C.3     1  UNL1        0.0861
      9 N         142.0518  138.1500  164.4931 N.3     1  UNL1       -0.2925
     10 H         141.8420  137.2856  164.9922 H       1  UNL1        0.1236
     11 O         141.6139  140.9694  165.5274 O.3     1  UNL1       -0.4537
     12 C         141.4103  141.1101  167.0068 C.ar    1  UNL1        0.1462
     13 C         141.6078  139.9266  167.9070 C.ar    1  UNL1        0.0384
     14 C         141.4042  140.0673  169.3864 C.ar    1  UNL1        0.0154
     15 C         141.0030  141.3915  169.9657 C.ar    1  UNL1        0.0684
     16 CL        140.7994  141.5322  171.4451 Cl      1  UNL1       -0.0814
     17 C         140.8055  142.5750  169.0656 C.ar    1  UNL1        0.0712
     18 CL        140.4044  143.8992  169.6448 Cl      1  UNL1       -0.0813
     19 C         141.0091  142.4343  167.5861 C.ar    1  UNL1        0.0497
@<TRIPOS>BOND
     1     8     9    1
     2     9     7    1
     3     7     1    1
     4     1     2   ar
     5     2     3   ar
     6     3     4   ar
     7     4     5   ar
     8     5     6   ar
     9     6    11    1
    10    11    12    1
    11    12    13   ar
    12    13    14   ar
    13    14    15   ar
    14    15    16    1
    15    15    17   ar
    16    17    18    1
    17    17    19   ar
    18     6     1   ar
    19    19    12   ar
    20     9    10    1
