@<TRIPOS>MOLECULE
*****
 39 42 0 0 0
SMALL
GASTEIGER

@<TRIPOS>ATOM
      1 C         141.2262  144.3195  161.2552 C.ar    1  UNL1        0.0690
      2 C         140.6745  145.2047  160.1772 C.ar    1  UNL1        0.0275
      3 C         141.4404  144.9322  158.9166 C.ar    1  UNL1        0.1140
      4 N         142.4653  143.8786  159.2154 N.ar    1  UNL1       -0.3223
      5 C         142.3330  143.4999  160.6607 C.ar    1  UNL1        0.0717
      6 C         143.2374  142.4577  161.2488 C.3     1  UNL1        0.1857
      7 O         144.2741  141.7942  160.3916 O.3     1  UNL1       -0.3454
      8 C         144.4064  142.1729  158.9462 C.3     1  UNL1        0.1671
      9 C         143.5020  143.2151  158.3581 C.3     1  UNL1        0.1379
     10 N         139.7707  143.2129  163.1010 N.am    1  UNL1       -0.2986
     11 C         140.7541  144.2637  162.6778 C.2     1  UNL1        0.2472
     12 O         141.2651  145.2585  163.6773 O.2     1  UNL1       -0.2701
     13 H         139.4352  142.5599  162.4450 H       1  UNL1        0.1500
     14 C         139.2986  143.1570  164.5237 C.3     1  UNL1        0.0958
     15 C         139.9774  142.2471  165.5041 C.ar    1  UNL1        0.0147
     16 C         141.3021  142.6330  166.0925 C.ar    1  UNL1        0.0003
     17 C         141.9810  141.7231  167.0728 C.ar    1  UNL1        0.0228
     18 C         141.3352  140.4272  167.4648 C.ar    1  UNL1        0.1526
     19 N         140.0105  140.0413  166.8764 N.ar    1  UNL1       -0.2401
     20 C         139.3316  140.9512  165.8960 C.ar    1  UNL1        0.0960
     21 C         142.0141  139.5173  168.4452 C.3     1  UNL1        0.4348
     22 F         142.6929  138.6074  169.4255 F       1  UNL1       -0.1644
     23 F         140.8563  139.6681  169.3868 F       1  UNL1       -0.1644
     24 F         143.1719  139.3666  167.5035 F       1  UNL1       -0.1644
     25 C         138.3768  145.1393  165.9275 C.3     1  UNL1        0.0021
     26 C         138.1475  144.0111  164.9659 C.3     1  UNL1        0.0242
     27 C         141.2199  145.5967  157.5899 C.2     1  UNL1        0.2619
     28 O         142.3755  146.2121  156.8581 O.2     1  UNL1       -0.2686
     29 N         139.8437  145.6457  156.9951 N.am    1  UNL1       -0.2975
     30 H         139.0851  145.2417  157.4754 H       1  UNL1        0.1500
     31 C         139.6232  146.3102  155.6685 C.3     1  UNL1        0.0945
     32 C         139.7142  145.5085  154.4040 C.3     1  UNL1        0.0262
     33 C         139.3119  147.7762  155.6065 C.ar    1  UNL1       -0.0044
     34 C         138.6222  148.4458  156.7580 C.ar    1  UNL1       -0.0004
     35 C         138.3109  149.9118  156.6960 C.ar    1  UNL1        0.0294
     36 C         138.6891  150.7082  155.4825 C.ar    1  UNL1        0.1401
     37 F         138.3777  152.1742  155.4204 F       1  UNL1       -0.2042
     38 C         139.3787  150.0386  154.3309 C.ar    1  UNL1        0.0294
     39 C         139.6901  148.5726  154.3929 C.ar    1  UNL1       -0.0004
@<TRIPOS>BOND
     1    25    26    1
     2    14    26    1
     3    14    10    1
     4    10    11   am
     5    11    12    2
     6    11     1    1
     7     1     2   ar
     8     2     3   ar
     9     3    27    1
    10    27    28    2
    11    27    29   am
    12    29    31    1
    13    31    32    1
    14    31    33    1
    15    33    34   ar
    16    34    35   ar
    17    35    36   ar
    18    36    37    1
    19    36    38   ar
    20    38    39   ar
    21     3     4   ar
    22     4     5   ar
    23     5     6    1
    24     6     7    1
    25     7     8    1
    26     8     9    1
    27    14    15    1
    28    15    16   ar
    29    16    17   ar
    30    17    18   ar
    31    18    21    1
    32    21    22    1
    33    21    23    1
    34    21    24    1
    35    18    19   ar
    36    19    20   ar
    37     5     1   ar
    38    20    15   ar
    39    39    33   ar
    40     9     4    1
    41    10    13    1
    42    29    30    1
@<TRIPOS>MOLECULE
*****
 39 42 0 0 0
SMALL
GASTEIGER

@<TRIPOS>ATOM
      1 C         140.0427  143.5615  160.1518 C.ar    1  UNL1        0.0690
      2 C         140.0659  144.7565  159.2455 C.ar    1  UNL1        0.0275
      3 C         140.7370  144.3546  157.9656 C.ar    1  UNL1        0.1140
      4 N         141.1285  142.9112  158.0809 N.ar    1  UNL1       -0.3223
      5 C         140.6993  142.4210  159.4320 C.ar    1  UNL1        0.0717
      6 C         140.9620  140.9995  159.8324 C.3     1  UNL1        0.1857
      7 O         141.6537  140.0682  158.8816 O.3     1  UNL1       -0.3454
      8 C         142.0829  140.5583  157.5305 C.3     1  UNL1        0.1671
      9 C         141.8202  141.9798  157.1301 C.3     1  UNL1        0.1379
     10 N         140.3452  143.1941  162.7059 N.am    1  UNL1       -0.2986
     11 C         139.4643  143.5151  161.5350 C.2     1  UNL1        0.2472
     12 O         138.0051  143.7897  161.7474 O.2     1  UNL1       -0.2701
     13 H         141.3030  143.0138  162.5666 H       1  UNL1        0.1500
     14 C         139.7669  143.1477  164.0892 C.3     1  UNL1        0.0958
     15 C         139.3213  141.8395  164.6723 C.ar    1  UNL1        0.0147
     16 C         139.7951  141.4251  166.0339 C.ar    1  UNL1        0.0003
     17 C         139.3495  140.1169  166.6170 C.ar    1  UNL1        0.0228
     18 C         138.4303  139.2230  165.8386 C.ar    1  UNL1        0.1526
     19 N         137.9565  139.6374  164.4770 N.ar    1  UNL1       -0.2401
     20 C         138.4020  140.9456  163.8939 C.ar    1  UNL1        0.0960
     21 C         137.9847  137.9148  166.4217 C.3     1  UNL1        0.4348
     22 F         137.5392  136.6066  167.0049 F       1  UNL1       -0.1644
     23 F         138.8993  137.1850  165.4832 F       1  UNL1       -0.1644
     24 F         137.0701  138.6447  167.3603 F       1  UNL1       -0.1644
     25 C         138.2991  144.8079  165.4452 C.3     1  UNL1        0.0021
     26 C         139.6340  144.4095  164.8892 C.3     1  UNL1        0.0242
     27 C         140.9748  145.2405  156.7788 C.2     1  UNL1        0.2619
     28 O         142.3696  145.6668  156.4286 O.2     1  UNL1       -0.2686
     29 N         139.8178  145.7001  155.9420 N.am    1  UNL1       -0.2975
     30 H         138.9023  145.4203  156.1718 H       1  UNL1        0.1500
     31 C         140.0556  146.5860  154.7552 C.3     1  UNL1        0.0945
     32 C         140.7147  146.0329  153.5266 C.3     1  UNL1        0.0262
     33 C         139.6344  148.0251  154.7970 C.ar    1  UNL1       -0.0044
     34 C         138.8092  148.5320  155.9425 C.ar    1  UNL1       -0.0004
     35 C         138.3880  149.9710  155.9843 C.ar    1  UNL1        0.0294
     36 C         138.7919  150.9031  154.8807 C.ar    1  UNL1        0.1401
     37 F         138.3707  152.3421  154.9225 F       1  UNL1       -0.2042
     38 C         139.6171  150.3962  153.7352 C.ar    1  UNL1        0.0294
     39 C         140.0383  148.9572  153.6934 C.ar    1  UNL1       -0.0004
@<TRIPOS>BOND
     1    25    26    1
     2    14    26    1
     3    14    10    1
     4    10    11   am
     5    11    12    2
     6    11     1    1
     7     1     2   ar
     8     2     3   ar
     9     3    27    1
    10    27    28    2
    11    27    29   am
    12    29    31    1
    13    31    32    1
    14    31    33    1
    15    33    34   ar
    16    34    35   ar
    17    35    36   ar
    18    36    37    1
    19    36    38   ar
    20    38    39   ar
    21     3     4   ar
    22     4     5   ar
    23     5     6    1
    24     6     7    1
    25     7     8    1
    26     8     9    1
    27    14    15    1
    28    15    16   ar
    29    16    17   ar
    30    17    18   ar
    31    18    21    1
    32    21    22    1
    33    21    23    1
    34    21    24    1
    35    18    19   ar
    36    19    20   ar
    37     5     1   ar
    38    20    15   ar
    39    39    33   ar
    40     9     4    1
    41    10    13    1
    42    29    30    1
@<TRIPOS>MOLECULE
*****
 39 42 0 0 0
SMALL
GASTEIGER

@<TRIPOS>ATOM
      1 C         141.8101  138.9811  162.2492 C.ar    1  UNL1        0.0690
      2 C         141.4531  138.0477  161.1305 C.ar    1  UNL1        0.0275
      3 C         142.0330  138.6007  159.8625 C.ar    1  UNL1        0.1140
      4 N         142.7485  139.8759  160.1975 N.ar    1  UNL1       -0.3223
      5 C         142.6107  140.1110  161.6725 C.ar    1  UNL1        0.0717
      6 C         143.2320  141.3234  162.3000 C.3     1  UNL1        0.1857
      7 O         143.9911  142.3008  161.4524 O.3     1  UNL1       -0.3454
      8 C         144.1289  142.0657  159.9774 C.3     1  UNL1        0.1671
      9 C         143.5075  140.8533  159.3499 C.3     1  UNL1        0.1379
     10 N         140.3553  139.6698  164.2887 N.am    1  UNL1       -0.2986
     11 C         141.4328  138.8140  163.6913 C.2     1  UNL1        0.2472
     12 O         142.1329  137.7913  164.5361 O.2     1  UNL1       -0.2701
     13 H         139.8958  140.3411  163.7342 H       1  UNL1        0.1500
     14 C         139.9780  139.5027  165.7308 C.3     1  UNL1        0.0958
     15 C         140.6527  140.3313  166.7835 C.ar    1  UNL1        0.0147
     16 C         140.1518  141.7124  167.0861 C.ar    1  UNL1        0.0003
     17 C         140.8265  142.5411  168.1387 C.ar    1  UNL1        0.0228
     18 C         142.0022  141.9886  168.8887 C.ar    1  UNL1        0.1526
     19 N         142.5032  140.6075  168.5861 N.ar    1  UNL1       -0.2401
     20 C         141.8284  139.7789  167.5335 C.ar    1  UNL1        0.0960
     21 C         142.6769  142.8173  169.9414 C.3     1  UNL1        0.4348
     22 F         143.3516  143.6459  170.9940 F       1  UNL1       -0.1644
     23 F         143.8738  141.9150  169.8845 F       1  UNL1       -0.1644
     24 F         141.4800  143.7196  169.9983 F       1  UNL1       -0.1644
     25 C         137.7591  138.9379  166.9584 C.3     1  UNL1        0.0021
     26 C         138.9260  138.5069  166.1202 C.3     1  UNL1        0.0242
     27 C         141.9178  137.9864  158.4989 C.2     1  UNL1        0.2619
     28 O         140.6163  138.0485  157.7559 O.2     1  UNL1       -0.2686
     29 N         143.1041  137.3100  157.8783 N.am    1  UNL1       -0.2975
     30 H         143.9584  137.2692  158.3660 H       1  UNL1        0.1500
     31 C         142.9889  136.6957  156.5147 C.3     1  UNL1        0.0945
     32 C         143.1133  137.5555  155.2920 C.3     1  UNL1        0.0262
     33 C         142.7492  135.2217  156.3740 C.ar    1  UNL1       -0.0044
     34 C         141.7198  134.7183  155.4061 C.ar    1  UNL1       -0.0004
     35 C         141.4801  133.2443  155.2653 C.ar    1  UNL1        0.0294
     36 C         142.2699  132.2737  156.0925 C.ar    1  UNL1        0.1401
     37 F         142.0303  130.7996  155.9517 F       1  UNL1       -0.2042
     38 C         143.2994  132.7770  157.0604 C.ar    1  UNL1        0.0294
     39 C         143.5390  134.2511  157.2011 C.ar    1  UNL1       -0.0004
@<TRIPOS>BOND
     1    25    26    1
     2    14    26    1
     3    14    10    1
     4    10    11   am
     5    11    12    2
     6    11     1    1
     7     1     2   ar
     8     2     3   ar
     9     3    27    1
    10    27    28    2
    11    27    29   am
    12    29    31    1
    13    31    32    1
    14    31    33    1
    15    33    34   ar
    16    34    35   ar
    17    35    36   ar
    18    36    37    1
    19    36    38   ar
    20    38    39   ar
    21     3     4   ar
    22     4     5   ar
    23     5     6    1
    24     6     7    1
    25     7     8    1
    26     8     9    1
    27    14    15    1
    28    15    16   ar
    29    16    17   ar
    30    17    18   ar
    31    18    21    1
    32    21    22    1
    33    21    23    1
    34    21    24    1
    35    18    19   ar
    36    19    20   ar
    37     5     1   ar
    38    20    15   ar
    39    39    33   ar
    40     9     4    1
    41    10    13    1
    42    29    30    1
@<TRIPOS>MOLECULE
*****
 39 42 0 0 0
SMALL
GASTEIGER

@<TRIPOS>ATOM
      1 C         141.7642  138.6108  160.4817 C.ar    1  UNL1        0.0690
      2 C         140.8711  138.0900  161.5685 C.ar    1  UNL1        0.0275
      3 C         141.2496  138.7756  162.8478 C.ar    1  UNL1        0.1140
      4 N         142.3766  139.7202  162.5516 N.ar    1  UNL1       -0.3223
      5 C         142.6946  139.6183  161.0893 C.ar    1  UNL1        0.0717
      6 C         143.7904  140.4561  160.4999 C.3     1  UNL1        0.1857
      7 O         144.5680  141.3958  161.3729 O.3     1  UNL1       -0.3454
      8 C         144.2500  141.4977  162.8353 C.3     1  UNL1        0.1671
      9 C         143.1543  140.6599  163.4246 C.3     1  UNL1        0.1379
     10 N         142.9467  137.5817  158.4097 N.am    1  UNL1       -0.2986
     11 C         141.7325  138.1968  159.0403 C.2     1  UNL1        0.2472
     12 O         140.4867  138.3978  158.2295 O.2     1  UNL1       -0.2701
     13 H         143.7644  137.4497  158.9419 H       1  UNL1        0.1500
     14 C         142.9149  137.1677  156.9683 C.3     1  UNL1        0.0958
     15 C         142.6155  135.7439  156.6034 C.ar    1  UNL1        0.0147
     16 C         141.7218  135.4405  155.4375 C.ar    1  UNL1        0.0003
     17 C         141.4224  134.0167  155.0725 C.ar    1  UNL1        0.0228
     18 C         142.0167  132.8963  155.8735 C.ar    1  UNL1        0.1526
     19 N         142.9104  133.1997  157.0393 N.ar    1  UNL1       -0.2401
     20 C         143.2098  134.6235  157.4043 C.ar    1  UNL1        0.0960
     21 C         141.7173  131.4726  155.5085 C.3     1  UNL1        0.4348
     22 F         141.4179  130.0488  155.1436 F       1  UNL1       -0.1644
     23 F         142.6432  131.0006  156.5902 F       1  UNL1       -0.1644
     24 F         140.7915  131.9445  154.4268 F       1  UNL1       -0.1644
     25 C         144.5243  138.2224  155.2227 C.3     1  UNL1        0.0021
     26 C         143.1826  138.1775  155.8920 C.3     1  UNL1        0.0242
     27 C         140.6129  138.5554  164.1880 C.2     1  UNL1        0.2619
     28 O         140.5867  137.1815  164.7892 O.2     1  UNL1       -0.2686
     29 N         140.0023  139.7093  164.9270 N.am    1  UNL1       -0.2975
     30 H         140.0195  140.6111  164.5324 H       1  UNL1        0.1500
     31 C         139.3656  139.4890  166.2672 C.3     1  UNL1        0.0945
     32 C         137.9842  138.9111  166.3553 C.3     1  UNL1        0.0262
     33 C         140.1103  139.8468  167.5192 C.ar    1  UNL1       -0.0044
     34 C         139.3554  140.1663  168.7753 C.ar    1  UNL1       -0.0004
     35 C         140.1000  140.5240  170.0273 C.ar    1  UNL1        0.0294
     36 C         141.5996  140.5622  170.0232 C.ar    1  UNL1        0.1401
     37 F         142.3442  140.9199  171.2752 F       1  UNL1       -0.2042
     38 C         142.3544  140.2426  168.7670 C.ar    1  UNL1        0.0294
     39 C         141.6098  139.8849  167.5150 C.ar    1  UNL1       -0.0004
@<TRIPOS>BOND
     1    25    26    1
     2    14    26    1
     3    14    10    1
     4    10    11   am
     5    11    12    2
     6    11     1    1
     7     1     2   ar
     8     2     3   ar
     9     3    27    1
    10    27    28    2
    11    27    29   am
    12    29    31    1
    13    31    32    1
    14    31    33    1
    15    33    34   ar
    16    34    35   ar
    17    35    36   ar
    18    36    37    1
    19    36    38   ar
    20    38    39   ar
    21     3     4   ar
    22     4     5   ar
    23     5     6    1
    24     6     7    1
    25     7     8    1
    26     8     9    1
    27    14    15    1
    28    15    16   ar
    29    16    17   ar
    30    17    18   ar
    31    18    21    1
    32    21    22    1
    33    21    23    1
    34    21    24    1
    35    18    19   ar
    36    19    20   ar
    37     5     1   ar
    38    20    15   ar
    39    39    33   ar
    40     9     4    1
    41    10    13    1
    42    29    30    1
@<TRIPOS>MOLECULE
*****
 39 42 0 0 0
SMALL
GASTEIGER

@<TRIPOS>ATOM
      1 C         139.7426  143.6459  160.3533 C.ar    1  UNL1        0.0690
      2 C         140.3205  144.8135  159.6098 C.ar    1  UNL1        0.0275
      3 C         140.0564  144.6085  158.1475 C.ar    1  UNL1        0.1140
      4 N         139.3153  143.3142  157.9873 N.ar    1  UNL1       -0.3223
      5 C         139.1213  142.7193  159.3505 C.ar    1  UNL1        0.0717
      6 C         138.4040  141.4108  159.5026 C.3     1  UNL1        0.1857
      7 O         137.8808  140.6971  158.2915 O.3     1  UNL1       -0.3454
      8 C         138.0747  141.2921  156.9282 C.3     1  UNL1        0.1671
      9 C         138.7920  142.6006  156.7761 C.3     1  UNL1        0.1379
     10 N         140.9362  142.7227  162.4683 N.am    1  UNL1       -0.2986
     11 C         139.7794  143.4408  161.8387 C.2     1  UNL1        0.2472
     12 O         138.6596  143.9538  162.6947 O.2     1  UNL1       -0.2701
     13 H         141.6712  142.3860  161.9065 H       1  UNL1        0.1500
     14 C         140.9730  142.5177  163.9538 C.3     1  UNL1        0.0958
     15 C         140.2350  141.3666  164.5705 C.ar    1  UNL1        0.0147
     16 C         140.0459  141.3072  166.0574 C.ar    1  UNL1        0.0003
     17 C         139.3080  140.1561  166.6741 C.ar    1  UNL1        0.0228
     18 C         138.7590  139.0645  165.8040 C.ar    1  UNL1        0.1526
     19 N         138.9481  139.1240  164.3172 N.ar    1  UNL1       -0.2401
     20 C         139.6861  140.2750  163.7004 C.ar    1  UNL1        0.0960
     21 C         138.0210  137.9134  166.4208 C.3     1  UNL1        0.4348
     22 F         137.2831  136.7624  167.0375 F       1  UNL1       -0.1644
     23 F         137.3141  138.8613  167.3437 F       1  UNL1       -0.1644
     24 F         138.7280  136.9656  165.4979 F       1  UNL1       -0.1644
     25 C         143.2252  143.2770  165.0030 C.3     1  UNL1        0.0021
     26 C         141.7479  143.4637  164.8224 C.3     1  UNL1        0.0242
     27 C         140.4622  145.5351  157.0399 C.2     1  UNL1        0.2619
     28 O         141.8640  146.0655  156.9815 O.2     1  UNL1       -0.2686
     29 N         139.4661  145.9312  155.9906 N.am    1  UNL1       -0.2975
     30 H         138.5460  145.5831  156.0289 H       1  UNL1        0.1500
     31 C         139.8719  146.8578  154.8830 C.3     1  UNL1        0.0945
     32 C         140.6739  146.3384  153.7268 C.3     1  UNL1        0.0262
     33 C         139.4757  148.3037  154.9317 C.ar    1  UNL1       -0.0044
     34 C         139.8754  149.2287  153.8206 C.ar    1  UNL1       -0.0004
     35 C         139.4793  150.6746  153.8693 C.ar    1  UNL1        0.0294
     36 C         138.6833  151.1955  155.0292 C.ar    1  UNL1        0.1401
     37 F         138.2872  152.6414  155.0779 F       1  UNL1       -0.2042
     38 C         138.2836  150.2705  156.1403 C.ar    1  UNL1        0.0294
     39 C         138.6798  148.8246  156.0916 C.ar    1  UNL1       -0.0004
@<TRIPOS>BOND
     1    25    26    1
     2    14    26    1
     3    14    10    1
     4    10    11   am
     5    11    12    2
     6    11     1    1
     7     1     2   ar
     8     2     3   ar
     9     3    27    1
    10    27    28    2
    11    27    29   am
    12    29    31    1
    13    31    32    1
    14    31    33    1
    15    33    34   ar
    16    34    35   ar
    17    35    36   ar
    18    36    37    1
    19    36    38   ar
    20    38    39   ar
    21     3     4   ar
    22     4     5   ar
    23     5     6    1
    24     6     7    1
    25     7     8    1
    26     8     9    1
    27    14    15    1
    28    15    16   ar
    29    16    17   ar
    30    17    18   ar
    31    18    21    1
    32    21    22    1
    33    21    23    1
    34    21    24    1
    35    18    19   ar
    36    19    20   ar
    37     5     1   ar
    38    20    15   ar
    39    39    33   ar
    40     9     4    1
    41    10    13    1
    42    29    30    1
@<TRIPOS>MOLECULE
*****
 39 42 0 0 0
SMALL
GASTEIGER

@<TRIPOS>ATOM
      1 C         137.9856  142.1953  157.7992 C.ar    1  UNL1        0.0690
      2 C         138.0508  141.9442  159.2766 C.ar    1  UNL1        0.0275
      3 C         139.0369  142.9078  159.8674 C.ar    1  UNL1        0.1140
      4 N         139.5811  143.7544  158.7552 N.ar    1  UNL1       -0.3223
      5 C         138.9314  143.3140  157.4770 C.ar    1  UNL1        0.0717
      6 C         139.2848  143.9887  156.1848 C.3     1  UNL1        0.1857
      7 O         140.2881  145.1037  156.1708 O.3     1  UNL1       -0.3454
      8 C         140.9379  145.5440  157.4490 C.3     1  UNL1        0.1671
      9 C         140.5844  144.8694  158.7412 C.3     1  UNL1        0.1379
     10 N         135.9270  142.1298  156.2155 N.am    1  UNL1       -0.2986
     11 C         137.1255  141.4572  156.8166 C.2     1  UNL1        0.2472
     12 O         137.4640  140.0467  156.4349 O.2     1  UNL1       -0.2701
     13 H         135.7048  143.0556  156.4660 H       1  UNL1        0.1500
     14 C         135.0669  141.3917  155.2329 C.3     1  UNL1        0.0958
     15 C         133.8401  140.6690  155.7046 C.ar    1  UNL1        0.0147
     16 C         132.5057  141.3533  155.6674 C.ar    1  UNL1        0.0003
     17 C         131.2789  140.6306  156.1391 C.ar    1  UNL1        0.0228
     18 C         131.3863  139.2237  156.6479 C.ar    1  UNL1        0.1526
     19 N         132.7206  138.5394  156.6851 N.ar    1  UNL1       -0.2401
     20 C         133.9475  139.2621  156.2134 C.ar    1  UNL1        0.0960
     21 C         130.1594  138.5010  157.1196 C.3     1  UNL1        0.4348
     22 F         128.9326  137.7783  157.5913 F       1  UNL1       -0.1644
     23 F         130.0720  139.4207  158.3013 F       1  UNL1       -0.1644
     24 F         130.2469  137.5812  155.9380 F       1  UNL1       -0.1644
     25 C         135.8003  140.0839  153.1112 C.3     1  UNL1        0.0021
     26 C         135.4338  141.3763  153.7785 C.3     1  UNL1        0.0242
     27 C         139.4128  143.0073  161.3162 C.2     1  UNL1        0.2619
     28 O         140.0145  141.8260  162.0178 O.2     1  UNL1       -0.2686
     29 N         139.1870  144.2883  162.0633 N.am    1  UNL1       -0.2975
     30 H         138.7921  145.0637  161.6029 H       1  UNL1        0.1500
     31 C         139.5629  144.3878  163.5121 C.3     1  UNL1        0.0945
     32 C         138.5127  144.6865  164.5405 C.3     1  UNL1        0.0262
     33 C         140.9890  144.1886  163.9322 C.ar    1  UNL1       -0.0044
     34 C         141.3477  143.0658  164.8599 C.ar    1  UNL1       -0.0004
     35 C         142.7738  142.8665  165.2801 C.ar    1  UNL1        0.0294
     36 C         143.8412  143.7902  164.7726 C.ar    1  UNL1        0.1401
     37 F         145.2673  143.5910  165.1928 F       1  UNL1       -0.2042
     38 C         143.4825  144.9130  163.8450 C.ar    1  UNL1        0.0294
     39 C         142.0564  145.1122  163.4248 C.ar    1  UNL1       -0.0004
@<TRIPOS>BOND
     1    25    26    1
     2    14    26    1
     3    14    10    1
     4    10    11   am
     5    11    12    2
     6    11     1    1
     7     1     2   ar
     8     2     3   ar
     9     3    27    1
    10    27    28    2
    11    27    29   am
    12    29    31    1
    13    31    32    1
    14    31    33    1
    15    33    34   ar
    16    34    35   ar
    17    35    36   ar
    18    36    37    1
    19    36    38   ar
    20    38    39   ar
    21     3     4   ar
    22     4     5   ar
    23     5     6    1
    24     6     7    1
    25     7     8    1
    26     8     9    1
    27    14    15    1
    28    15    16   ar
    29    16    17   ar
    30    17    18   ar
    31    18    21    1
    32    21    22    1
    33    21    23    1
    34    21    24    1
    35    18    19   ar
    36    19    20   ar
    37     5     1   ar
    38    20    15   ar
    39    39    33   ar
    40     9     4    1
    41    10    13    1
    42    29    30    1
@<TRIPOS>MOLECULE
*****
 39 42 0 0 0
SMALL
GASTEIGER

@<TRIPOS>ATOM
      1 C         141.6627  138.7276  160.3126 C.ar    1  UNL1        0.0690
      2 C         142.7855  139.3627  161.0781 C.ar    1  UNL1        0.0275
      3 C         142.2942  139.6541  162.4651 C.ar    1  UNL1        0.1140
      4 N         140.8678  139.1991  162.5568 N.ar    1  UNL1       -0.3223
      5 C         140.4775  138.6265  161.2264 C.ar    1  UNL1        0.0717
      6 C         139.0934  138.0870  161.0190 C.3     1  UNL1        0.1857
      7 O         138.0995  138.1201  162.1420 O.3     1  UNL1       -0.3454
      8 C         138.4898  138.6927  163.4723 C.3     1  UNL1        0.1671
      9 C         139.8739  139.2322  163.6797 C.3     1  UNL1        0.1379
     10 N         142.9396  137.5801  158.3624 N.am    1  UNL1       -0.2986
     11 C         141.7158  138.2734  158.8840 C.2     1  UNL1        0.2472
     12 O         140.5454  138.5123  157.9770 O.2     1  UNL1       -0.2701
     13 H         143.7079  137.4233  158.9577 H       1  UNL1        0.1500
     14 C         142.9927  137.1259  156.9338 C.3     1  UNL1        0.0958
     15 C         142.6964  135.6962  156.5899 C.ar    1  UNL1        0.0147
     16 C         141.8572  135.3720  155.3896 C.ar    1  UNL1        0.0003
     17 C         141.5609  133.9424  155.0456 C.ar    1  UNL1        0.0228
     18 C         142.1038  132.8370  155.9020 C.ar    1  UNL1        0.1526
     19 N         142.9429  133.1612  157.1023 N.ar    1  UNL1       -0.2401
     20 C         143.2392  134.5908  157.4462 C.ar    1  UNL1        0.0960
     21 C         141.8075  131.4073  155.5581 C.3     1  UNL1        0.4348
     22 F         141.5112  129.9777  155.2141 F       1  UNL1       -0.1644
     23 F         143.1511  131.0016  156.0871 F       1  UNL1       -0.1644
     24 F         140.4638  131.8131  155.0290 F       1  UNL1       -0.1644
     25 C         144.6638  138.0004  155.1471 C.3     1  UNL1        0.0021
     26 C         143.3421  138.1013  155.8492 C.3     1  UNL1        0.0242
     27 C         143.0896  140.2890  163.5670 C.2     1  UNL1        0.2619
     28 O         144.4931  139.8340  163.8371 O.2     1  UNL1       -0.2686
     29 N         142.4814  141.3791  164.3989 N.am    1  UNL1       -0.2975
     30 H         141.5602  141.6778  164.2217 H       1  UNL1        0.1500
     31 C         143.2768  142.0140  165.5008 C.3     1  UNL1        0.0945
     32 C         144.2345  143.1258  165.1898 C.3     1  UNL1        0.0262
     33 C         143.1145  141.5371  166.9137 C.ar    1  UNL1       -0.0044
     34 C         142.6685  140.1307  167.1840 C.ar    1  UNL1       -0.0004
     35 C         142.5063  139.6539  168.5969 C.ar    1  UNL1        0.0294
     36 C         142.7899  140.5834  169.7395 C.ar    1  UNL1        0.1401
     37 F         142.6277  140.1065  171.1524 F       1  UNL1       -0.2042
     38 C         143.2359  141.9898  169.4692 C.ar    1  UNL1        0.0294
     39 C         143.3982  142.4667  168.0563 C.ar    1  UNL1       -0.0004
@<TRIPOS>BOND
     1    25    26    1
     2    14    26    1
     3    14    10    1
     4    10    11   am
     5    11    12    2
     6    11     1    1
     7     1     2   ar
     8     2     3   ar
     9     3    27    1
    10    27    28    2
    11    27    29   am
    12    29    31    1
    13    31    32    1
    14    31    33    1
    15    33    34   ar
    16    34    35   ar
    17    35    36   ar
    18    36    37    1
    19    36    38   ar
    20    38    39   ar
    21     3     4   ar
    22     4     5   ar
    23     5     6    1
    24     6     7    1
    25     7     8    1
    26     8     9    1
    27    14    15    1
    28    15    16   ar
    29    16    17   ar
    30    17    18   ar
    31    18    21    1
    32    21    22    1
    33    21    23    1
    34    21    24    1
    35    18    19   ar
    36    19    20   ar
    37     5     1   ar
    38    20    15   ar
    39    39    33   ar
    40     9     4    1
    41    10    13    1
    42    29    30    1
@<TRIPOS>MOLECULE
*****
 39 42 0 0 0
SMALL
GASTEIGER

@<TRIPOS>ATOM
      1 C         137.9460  142.1609  157.5835 C.ar    1  UNL1        0.0690
      2 C         138.2063  141.8618  159.0301 C.ar    1  UNL1        0.0275
      3 C         139.1700  142.8874  159.5493 C.ar    1  UNL1        0.1140
      4 N         139.5052  143.8203  158.4235 N.ar    1  UNL1       -0.3223
      5 C         138.7487  143.3713  157.2086 C.ar    1  UNL1        0.0717
      6 C         138.8885  144.1226  155.9179 C.3     1  UNL1        0.1857
      7 O         139.7849  145.3229  155.8422 O.3     1  UNL1       -0.3454
      8 C         140.5414  145.7719  157.0571 C.3     1  UNL1        0.1671
      9 C         140.4016  145.0206  158.3478 C.3     1  UNL1        0.1379
     10 N         135.8484  142.0529  156.0542 N.am    1  UNL1       -0.2986
     11 C         137.0416  141.3857  156.6718 C.2     1  UNL1        0.2472
     12 O         137.3303  139.9436  156.3777 O.2     1  UNL1       -0.2701
     13 H         135.6588  142.9995  156.2472 H       1  UNL1        0.1500
     14 C         134.9440  141.2777  155.1425 C.3     1  UNL1        0.0958
     15 C         133.7299  140.5922  155.6957 C.ar    1  UNL1        0.0147
     16 C         133.8373  139.1972  156.2366 C.ar    1  UNL1        0.0003
     17 C         132.6232  138.5117  156.7898 C.ar    1  UNL1        0.0228
     18 C         131.3017  139.2212  156.8021 C.ar    1  UNL1        0.1526
     19 N         131.1943  140.6162  156.2612 N.ar    1  UNL1       -0.2401
     20 C         132.4084  141.3017  155.7080 C.ar    1  UNL1        0.0960
     21 C         130.0876  138.5357  157.3553 C.3     1  UNL1        0.4348
     22 F         128.8735  137.8503  157.9085 F       1  UNL1       -0.1644
     23 F         129.9014  139.6562  158.3350 F       1  UNL1       -0.1644
     24 F         130.2738  137.4153  156.3756 F       1  UNL1       -0.1644
     25 C         135.8212  139.9220  153.1072 C.3     1  UNL1        0.0021
     26 C         135.2538  141.1880  153.6776 C.3     1  UNL1        0.0242
     27 C         139.7047  142.9662  160.9486 C.2     1  UNL1        0.2619
     28 O         141.1080  142.5250  161.2412 O.2     1  UNL1       -0.2686
     29 N         138.8358  143.4863  162.0553 N.am    1  UNL1       -0.2975
     30 H         137.9147  143.7760  161.8632 H       1  UNL1        0.1500
     31 C         139.3704  143.5652  163.4545 C.3     1  UNL1        0.0945
     32 C         140.0597  144.8116  163.9249 C.3     1  UNL1        0.0262
     33 C         139.2158  142.3976  164.3834 C.ar    1  UNL1       -0.0044
     34 C         138.2912  141.2720  164.0257 C.ar    1  UNL1       -0.0004
     35 C         138.1366  140.1043  164.9545 C.ar    1  UNL1        0.0294
     36 C         138.9066  140.0624  166.2411 C.ar    1  UNL1        0.1401
     37 F         138.7520  138.8948  167.1700 F       1  UNL1       -0.2042
     38 C         139.8313  141.1880  166.5988 C.ar    1  UNL1        0.0294
     39 C         139.9859  142.3556  165.6700 C.ar    1  UNL1       -0.0004
@<TRIPOS>BOND
     1    25    26    1
     2    14    26    1
     3    14    10    1
     4    10    11   am
     5    11    12    2
     6    11     1    1
     7     1     2   ar
     8     2     3   ar
     9     3    27    1
    10    27    28    2
    11    27    29   am
    12    29    31    1
    13    31    32    1
    14    31    33    1
    15    33    34   ar
    16    34    35   ar
    17    35    36   ar
    18    36    37    1
    19    36    38   ar
    20    38    39   ar
    21     3     4   ar
    22     4     5   ar
    23     5     6    1
    24     6     7    1
    25     7     8    1
    26     8     9    1
    27    14    15    1
    28    15    16   ar
    29    16    17   ar
    30    17    18   ar
    31    18    21    1
    32    21    22    1
    33    21    23    1
    34    21    24    1
    35    18    19   ar
    36    19    20   ar
    37     5     1   ar
    38    20    15   ar
    39    39    33   ar
    40     9     4    1
    41    10    13    1
    42    29    30    1
@<TRIPOS>MOLECULE
*****
 39 42 0 0 0
SMALL
GASTEIGER

@<TRIPOS>ATOM
      1 C         143.1544  139.3546  159.6143 C.ar    1  UNL1        0.0690
      2 C         142.8781  138.0303  158.9663 C.ar    1  UNL1        0.0275
      3 C         143.0920  138.1833  157.4896 C.ar    1  UNL1        0.1140
      4 N         143.5005  139.6021  157.2248 N.ar    1  UNL1       -0.3223
      5 C         143.5390  140.3261  158.5380 C.ar    1  UNL1        0.0717
      6 C         143.9193  141.7763  158.5841 C.3     1  UNL1        0.1857
      7 O         144.2612  142.5026  157.3170 O.3     1  UNL1       -0.3454
      8 C         144.2226  141.7786  156.0038 C.3     1  UNL1        0.1671
      9 C         143.8423  140.3284  155.9577 C.3     1  UNL1        0.1379
     10 N         143.6694  138.7136  162.0789 N.am    1  UNL1       -0.2986
     11 C         143.0622  139.6548  161.0811 C.2     1  UNL1        0.2472
     12 O         142.3628  140.8960  161.5501 O.2     1  UNL1       -0.2701
     13 H         144.1285  137.8989  161.7711 H       1  UNL1        0.1500
     14 C         143.5773  139.0138  163.5456 C.3     1  UNL1        0.0958
     15 C         142.2684  138.8597  164.2619 C.ar    1  UNL1        0.0147
     16 C         141.3700  137.7019  163.9418 C.ar    1  UNL1        0.0003
     17 C         140.0611  137.5478  164.6581 C.ar    1  UNL1        0.0228
     18 C         139.6506  138.5514  165.6945 C.ar    1  UNL1        0.1526
     19 N         140.5490  139.7092  166.0146 N.ar    1  UNL1       -0.2401
     20 C         141.8579  139.8634  165.2983 C.ar    1  UNL1        0.0960
     21 C         138.3418  138.3973  166.4108 C.3     1  UNL1        0.4348
     22 F         137.0329  138.2431  167.1271 F       1  UNL1       -0.1644
     23 F         138.4827  139.7833  166.9666 F       1  UNL1       -0.1644
     24 F         138.2008  137.0112  165.8549 F       1  UNL1       -0.1644
     25 C         145.4357  140.7815  163.9593 C.3     1  UNL1        0.0021
     26 C         144.7940  139.4682  164.2960 C.3     1  UNL1        0.0242
     27 C         142.9266  137.1065  156.4585 C.2     1  UNL1        0.2619
     28 O         144.0267  136.8331  155.4763 O.2     1  UNL1       -0.2686
     29 N         141.6607  136.3030  156.4096 N.am    1  UNL1       -0.2975
     30 H         140.9386  136.4824  157.0542 H       1  UNL1        0.1500
     31 C         141.4953  135.2262  155.3785 C.3     1  UNL1        0.0945
     32 C         140.9351  135.5609  154.0279 C.3     1  UNL1        0.0262
     33 C         141.8900  133.8148  155.6981 C.ar    1  UNL1       -0.0044
     34 C         142.9477  133.5466  156.7273 C.ar    1  UNL1       -0.0004
     35 C         143.3424  132.1352  157.0468 C.ar    1  UNL1        0.0294
     36 C         142.6794  130.9920  156.3372 C.ar    1  UNL1        0.1401
     37 F         143.0741  129.5806  156.6567 F       1  UNL1       -0.2042
     38 C         141.6217  131.2602  155.3080 C.ar    1  UNL1        0.0294
     39 C         141.2270  132.6716  154.9884 C.ar    1  UNL1       -0.0004
@<TRIPOS>BOND
     1    25    26    1
     2    14    26    1
     3    14    10    1
     4    10    11   am
     5    11    12    2
     6    11     1    1
     7     1     2   ar
     8     2     3   ar
     9     3    27    1
    10    27    28    2
    11    27    29   am
    12    29    31    1
    13    31    32    1
    14    31    33    1
    15    33    34   ar
    16    34    35   ar
    17    35    36   ar
    18    36    37    1
    19    36    38   ar
    20    38    39   ar
    21     3     4   ar
    22     4     5   ar
    23     5     6    1
    24     6     7    1
    25     7     8    1
    26     8     9    1
    27    14    15    1
    28    15    16   ar
    29    16    17   ar
    30    17    18   ar
    31    18    21    1
    32    21    22    1
    33    21    23    1
    34    21    24    1
    35    18    19   ar
    36    19    20   ar
    37     5     1   ar
    38    20    15   ar
    39    39    33   ar
    40     9     4    1
    41    10    13    1
    42    29    30    1
