@<TRIPOS>MOLECULE
*****
 34 37 0 0 0
SMALL
GASTEIGER

@<TRIPOS>ATOM
      1 C         138.8820  139.7366  165.4250 C.ar    1  UNL1        0.0205
      2 C         140.2241  140.2080  165.9007 C.ar    1  UNL1        0.0219
      3 C         140.2105  140.2079  167.4006 C.ar    1  UNL1        0.0961
      4 C         141.2535  140.5763  168.4138 C.ar    1  UNL1        0.0685
      5 C         140.9459  140.4731  169.8783 C.ar    1  UNL1        0.0885
      6 C         139.5954  140.0016  170.3296 C.ar    1  UNL1        0.1263
      7 N         138.5524  139.6332  169.3164 N.ar    1  UNL1       -0.1633
      8 N         138.8600  139.7364  167.8520 N.ar    1  UNL1       -0.2270
      9 C         138.0389  139.4451  166.6309 C.ar    1  UNL1        0.1004
     10 C         137.7269  142.0762  163.9444 C.3     1  UNL1        0.0327
     11 C         137.8798  140.7533  163.2543 C.ar    1  UNL1       -0.0026
     12 C         137.4553  140.6001  161.8238 C.ar    1  UNL1        0.0946
     13 N         137.6082  139.2771  161.1335 N.ar    1  UNL1       -0.2426
     14 C         138.1857  138.1073  161.8738 C.ar    1  UNL1        0.0989
     15 C         138.6103  138.2605  163.3043 C.ar    1  UNL1        0.0204
     16 C         138.4574  139.5835  163.9945 C.ar    1  UNL1        0.0006
     17 C         141.9889  140.8415  170.8915 C.2     1  UNL1        0.2456
     18 N         143.1862  139.9599  171.0899 N.am    1  UNL1       -0.3252
     19 O         141.8346  142.0914  171.7063 O.2     1  UNL1       -0.2703
     20 H         143.2875  139.1396  170.5552 H       1  UNL1        0.1453
     21 H         143.8707  140.2017  171.7549 H       1  UNL1        0.1453
     22 N         142.6041  141.0479  167.9625 N.pl3   1  UNL1       -0.3327
     23 H         143.1044  141.6997  168.5047 H       1  UNL1        0.1468
     24 C         143.1924  140.5262  166.6851 C.3     1  UNL1        0.0702
     25 C         143.4192  139.0833  166.3435 C.3     1  UNL1        0.0208
     26 C         144.0241  139.0211  164.9723 C.3     1  UNL1        0.0160
     27 C         144.1711  140.4256  164.4664 C.3     1  UNL1        0.0404
     28 C         144.7408  139.7599  163.2489 C.3     1  UNL1        0.0156
     29 N         144.4372  141.6908  163.7060 N.3     1  UNL1       -0.3231
     30 C         143.6571  141.3557  165.5250 C.3     1  UNL1        0.0282
     31 C         144.0307  142.4266  164.5433 C.3     1  UNL1        0.0029
     32 C         143.2212  142.5097  166.3783 C.3     1  UNL1        0.0029
     33 H         144.8469  141.4633  162.8000 H       1  UNL1        0.1188
     34 H         145.0847  142.2754  164.2347 H       1  UNL1        0.1188
@<TRIPOS>BOND
     1    10    11    1
     2    11    12   ar
     3    12    13   ar
     4    13    14   ar
     5    14    15   ar
     6    15    16   ar
     7    16     1    1
     8     1     2   ar
     9     2     3   ar
    10     3     4   ar
    11     4    22    1
    12    24    22    1
    13    24    25    1
    14    25    26    1
    15    26    27    1
    16    27    28    1
    17    27    29    1
    18    27    30    1
    19    30    31    1
    20    30    32    1
    21     4     5   ar
    22     5    17    1
    23    17    18   am
    24    17    19    2
    25     5     6   ar
    26     6     7   ar
    27     7     8   ar
    28     8     9   ar
    29    16    11   ar
    30     9     1   ar
    31     8     3   ar
    32    30    24    1
    33    22    23    1
    34    29    33    1
    35    29    34    1
    36    18    20    1
    37    18    21    1
@<TRIPOS>MOLECULE
*****
 34 37 0 0 0
SMALL
GASTEIGER

@<TRIPOS>ATOM
      1 C         142.8517  139.1557  164.2003 C.ar    1  UNL1        0.0205
      2 C         141.5694  139.7217  164.7344 C.ar    1  UNL1        0.0219
      3 C         141.6192  139.6499  166.2319 C.ar    1  UNL1        0.0961
      4 C         140.6385  140.0614  167.2896 C.ar    1  UNL1        0.0685
      5 C         140.9710  139.8626  168.7388 C.ar    1  UNL1        0.0885
      6 C         142.2841  139.2523  169.1301 C.ar    1  UNL1        0.1263
      7 N         143.2648  138.8407  168.0724 N.ar    1  UNL1       -0.1633
      8 N         142.9324  139.0396  166.6232 N.ar    1  UNL1       -0.2270
      9 C         143.6941  138.7341  165.3677 C.ar    1  UNL1        0.1004
     10 C         144.4452  141.3240  162.8738 C.3     1  UNL1        0.0327
     11 C         144.0227  140.1170  162.0897 C.ar    1  UNL1       -0.0026
     12 C         144.3970  139.9941  160.6423 C.ar    1  UNL1        0.0946
     13 N         143.9745  138.7872  159.8582 N.ar    1  UNL1       -0.2426
     14 C         143.1778  137.7031  160.5215 C.ar    1  UNL1        0.0989
     15 C         142.8035  137.8260  161.9689 C.ar    1  UNL1        0.0204
     16 C         143.2260  139.0329  162.7530 C.ar    1  UNL1        0.0006
     17 C         139.9903  140.2741  169.7966 C.2     1  UNL1        0.2456
     18 N         140.4508  141.0844  170.9719 N.am    1  UNL1       -0.3252
     19 O         138.5490  139.8754  169.6790 O.2     1  UNL1       -0.2703
     20 H         141.3967  141.3460  171.0491 H       1  UNL1        0.1453
     21 H         139.8071  141.3545  171.6662 H       1  UNL1        0.1453
     22 N         139.3253  140.6718  166.8983 N.pl3   1  UNL1       -0.3327
     23 H         138.4844  140.2930  167.2427 H       1  UNL1        0.1468
     24 C         139.2935  141.8592  165.9824 C.3     1  UNL1        0.0702
     25 C         140.0543  143.1382  166.1701 C.3     1  UNL1        0.0208
     26 C         139.7264  144.0456  165.0216 C.3     1  UNL1        0.0160
     27 C         138.7628  143.3274  164.1240 C.3     1  UNL1        0.0404
     28 C         138.8319  144.5834  163.3069 C.3     1  UNL1        0.0156
     29 N         137.8137  142.8717  163.0556 N.3     1  UNL1       -0.3231
     30 C         138.4953  141.9761  164.7178 C.3     1  UNL1        0.0282
     31 C         137.6021  141.8029  163.5252 C.3     1  UNL1        0.0029
     32 C         138.0411  140.5887  165.0622 C.3     1  UNL1        0.0029
     33 H         137.7071  143.6088  162.3587 H       1  UNL1        0.1188
     34 H         136.9063  142.6644  163.4727 H       1  UNL1        0.1188
@<TRIPOS>BOND
     1    10    11    1
     2    11    12   ar
     3    12    13   ar
     4    13    14   ar
     5    14    15   ar
     6    15    16   ar
     7    16     1    1
     8     1     2   ar
     9     2     3   ar
    10     3     4   ar
    11     4    22    1
    12    24    22    1
    13    24    25    1
    14    25    26    1
    15    26    27    1
    16    27    28    1
    17    27    29    1
    18    27    30    1
    19    30    31    1
    20    30    32    1
    21     4     5   ar
    22     5    17    1
    23    17    18   am
    24    17    19    2
    25     5     6   ar
    26     6     7   ar
    27     7     8   ar
    28     8     9   ar
    29    16    11   ar
    30     9     1   ar
    31     8     3   ar
    32    30    24    1
    33    22    23    1
    34    29    33    1
    35    29    34    1
    36    18    20    1
    37    18    21    1
@<TRIPOS>MOLECULE
*****
 34 37 0 0 0
SMALL
GASTEIGER

@<TRIPOS>ATOM
      1 C         141.4159  140.4380  167.3735 C.ar    1  UNL1        0.0205
      2 C         140.4673  140.7904  166.2663 C.ar    1  UNL1        0.0219
      3 C         140.5680  139.7266  165.2135 C.ar    1  UNL1        0.0961
      4 C         139.8698  139.5471  163.8982 C.ar    1  UNL1        0.0685
      5 C         140.1825  138.3576  163.0394 C.ar    1  UNL1        0.0885
      6 C         141.1932  137.3478  163.4960 C.ar    1  UNL1        0.1263
      7 N         141.8914  137.5273  164.8114 N.ar    1  UNL1       -0.1633
      8 N         141.5788  138.7167  165.6702 N.ar    1  UNL1       -0.2270
      9 C         142.1028  139.1564  167.0051 C.ar    1  UNL1        0.1004
     10 C         139.3371  140.4350  169.5366 C.3     1  UNL1        0.0327
     11 C         140.5992  141.2269  169.7103 C.ar    1  UNL1       -0.0026
     12 C         140.8219  142.0173  170.9656 C.ar    1  UNL1        0.0946
     13 N         142.0839  142.8092  171.1393 N.ar    1  UNL1       -0.2426
     14 C         143.1232  142.8107  170.0578 C.ar    1  UNL1        0.0989
     15 C         142.9005  142.0203  168.8025 C.ar    1  UNL1        0.0204
     16 C         141.6385  141.2284  168.6288 C.ar    1  UNL1        0.0006
     17 C         139.4843  138.1780  161.7239 C.2     1  UNL1        0.2456
     18 N         138.0888  137.6292  161.6842 N.am    1  UNL1       -0.3252
     19 O         140.1815  138.5472  160.4482 O.2     1  UNL1       -0.2703
     20 H         137.6312  137.3868  162.5215 H       1  UNL1        0.1453
     21 H         137.6306  137.5113  160.8209 H       1  UNL1        0.1453
     22 N         138.8590  140.5569  163.4414 N.pl3   1  UNL1       -0.3327
     23 H         137.8987  140.3895  163.5797 H       1  UNL1        0.1468
     24 C         139.3114  141.8219  162.7741 C.3     1  UNL1        0.0702
     25 C         140.5354  141.9800  161.9217 C.3     1  UNL1        0.0208
     26 C         140.5996  143.4066  161.4628 C.3     1  UNL1        0.0160
     27 C         139.4153  144.1302  162.0317 C.3     1  UNL1        0.0404
     28 C         139.9889  145.3126  161.3086 C.3     1  UNL1        0.0156
     29 N         138.3508  145.1010  162.4494 N.3     1  UNL1       -0.3231
     30 C         138.6191  143.1508  162.8421 C.3     1  UNL1        0.0282
     31 C         137.7210  144.3264  163.0904 C.3     1  UNL1        0.0029
     32 C         137.6351  142.4172  163.7044 C.3     1  UNL1        0.0029
     33 H         138.5511  146.0179  162.0497 H       1  UNL1        0.1188
     34 H         138.3339  145.1700  163.4669 H       1  UNL1        0.1188
@<TRIPOS>BOND
     1    10    11    1
     2    11    12   ar
     3    12    13   ar
     4    13    14   ar
     5    14    15   ar
     6    15    16   ar
     7    16     1    1
     8     1     2   ar
     9     2     3   ar
    10     3     4   ar
    11     4    22    1
    12    24    22    1
    13    24    25    1
    14    25    26    1
    15    26    27    1
    16    27    28    1
    17    27    29    1
    18    27    30    1
    19    30    31    1
    20    30    32    1
    21     4     5   ar
    22     5    17    1
    23    17    18   am
    24    17    19    2
    25     5     6   ar
    26     6     7   ar
    27     7     8   ar
    28     8     9   ar
    29    16    11   ar
    30     9     1   ar
    31     8     3   ar
    32    30    24    1
    33    22    23    1
    34    29    33    1
    35    29    34    1
    36    18    20    1
    37    18    21    1
@<TRIPOS>MOLECULE
*****
 34 37 0 0 0
SMALL
GASTEIGER

@<TRIPOS>ATOM
      1 C         141.6270  142.3218  166.9389 C.ar    1  UNL1        0.0205
      2 C         141.0768  142.5682  165.5654 C.ar    1  UNL1        0.0219
      3 C         142.2327  142.6733  164.6152 C.ar    1  UNL1        0.0961
      4 C         142.2971  142.9108  163.1355 C.ar    1  UNL1        0.0685
      5 C         143.6261  142.9670  162.4421 C.ar    1  UNL1        0.0885
      6 C         144.8905  142.7856  163.2283 C.ar    1  UNL1        0.1263
      7 N         144.8261  142.5480  164.7080 N.ar    1  UNL1       -0.1633
      8 N         143.4972  142.4919  165.4014 N.ar    1  UNL1       -0.2270
      9 C         143.1228  142.2746  166.8376 C.ar    1  UNL1        0.1004
     10 C         140.1797  139.7453  167.4563 C.3     1  UNL1        0.0327
     11 C         140.0989  140.8640  168.4522 C.ar    1  UNL1       -0.0026
     12 C         139.2945  140.6946  169.7069 C.ar    1  UNL1        0.0946
     13 N         139.2137  141.8132  170.7029 N.ar    1  UNL1       -0.2426
     14 C         139.9373  143.1014  170.4443 C.ar    1  UNL1        0.0989
     15 C         140.7417  143.2709  169.1896 C.ar    1  UNL1        0.0204
     16 C         140.8225  142.1522  168.1936 C.ar    1  UNL1        0.0006
     17 C         143.6905  143.2045  160.9624 C.2     1  UNL1        0.2456
     18 N         144.7198  142.4954  160.1331 N.am    1  UNL1       -0.3252
     19 O         142.7257  144.1511  160.3120 O.2     1  UNL1       -0.2703
     20 H         145.3531  141.8741  160.5599 H       1  UNL1        0.1453
     21 H         144.7621  142.6513  159.1619 H       1  UNL1        0.1453
     22 N         141.0326  143.0923  162.3492 N.pl3   1  UNL1       -0.3327
     23 H         140.7510  143.9937  162.0710 H       1  UNL1        0.1468
     24 C         140.1974  141.9002  161.9867 C.3     1  UNL1        0.0702
     25 C         140.6698  140.6856  161.2441 C.3     1  UNL1        0.0208
     26 C         139.5075  139.7482  161.1015 C.3     1  UNL1        0.0160
     27 C         138.3167  140.3835  161.7561 C.3     1  UNL1        0.0404
     28 C         137.6105  139.1316  161.3271 C.3     1  UNL1        0.0156
     29 N         136.9783  140.7571  162.3209 N.3     1  UNL1       -0.3231
     30 C         138.7431  141.7135  162.3031 C.3     1  UNL1        0.0282
     31 C         137.3155  141.8091  162.7536 C.3     1  UNL1        0.0029
     32 C         138.8710  143.0635  162.9443 C.3     1  UNL1        0.0029
     33 H         136.3099  140.0096  162.1343 H       1  UNL1        0.1188
     34 H         136.6539  141.6200  161.8844 H       1  UNL1        0.1188
@<TRIPOS>BOND
     1    10    11    1
     2    11    12   ar
     3    12    13   ar
     4    13    14   ar
     5    14    15   ar
     6    15    16   ar
     7    16     1    1
     8     1     2   ar
     9     2     3   ar
    10     3     4   ar
    11     4    22    1
    12    24    22    1
    13    24    25    1
    14    25    26    1
    15    26    27    1
    16    27    28    1
    17    27    29    1
    18    27    30    1
    19    30    31    1
    20    30    32    1
    21     4     5   ar
    22     5    17    1
    23    17    18   am
    24    17    19    2
    25     5     6   ar
    26     6     7   ar
    27     7     8   ar
    28     8     9   ar
    29    16    11   ar
    30     9     1   ar
    31     8     3   ar
    32    30    24    1
    33    22    23    1
    34    29    33    1
    35    29    34    1
    36    18    20    1
    37    18    21    1
@<TRIPOS>MOLECULE
*****
 34 37 0 0 0
SMALL
GASTEIGER

@<TRIPOS>ATOM
      1 C         140.2524  140.2266  167.7362 C.ar    1  UNL1        0.0205
      2 C         141.1327  140.3800  166.5314 C.ar    1  UNL1        0.0219
      3 C         140.5599  139.5396  165.4288 C.ar    1  UNL1        0.0961
      4 C         141.0028  139.3000  164.0159 C.ar    1  UNL1        0.0685
      5 C         140.2114  138.3876  163.1263 C.ar    1  UNL1        0.0885
      6 C         138.9772  137.7149  163.6497 C.ar    1  UNL1        0.1263
      7 N         138.5343  137.9544  165.0626 N.ar    1  UNL1       -0.1633
      8 N         139.3256  138.8668  165.9522 N.ar    1  UNL1       -0.2270
      9 C         139.1356  139.2914  167.3782 C.ar    1  UNL1        0.1004
     10 C         142.2366  139.1076  169.6884 C.3     1  UNL1        0.0327
     11 C         141.4456  140.3321  170.0416 C.ar    1  UNL1       -0.0026
     12 C         141.6467  140.9973  171.3710 C.ar    1  UNL1        0.0946
     13 N         140.8558  142.2218  171.7243 N.ar    1  UNL1       -0.2426
     14 C         139.8637  142.7813  170.7482 C.ar    1  UNL1        0.0989
     15 C         139.6626  142.1162  169.4189 C.ar    1  UNL1        0.0204
     16 C         140.4535  140.8916  169.0655 C.ar    1  UNL1        0.0006
     17 C         140.6543  138.1480  161.7133 C.2     1  UNL1        0.2456
     18 N         139.6794  138.3069  160.5845 N.am    1  UNL1       -0.3252
     19 O         142.0723  137.7495  161.4291 O.2     1  UNL1       -0.2703
     20 H         138.7487  138.5685  160.7710 H       1  UNL1        0.1453
     21 H         139.9701  138.1497  159.6572 H       1  UNL1        0.1453
     22 N         142.2371  139.9728  163.4924 N.pl3   1  UNL1       -0.3327
     23 H         142.9838  139.4319  163.1471 H       1  UNL1        0.1468
     24 C         142.3338  141.4696  163.4951 C.3     1  UNL1        0.0702
     25 C         141.3312  142.4190  162.9091 C.3     1  UNL1        0.0208
     26 C         141.8278  143.8160  163.1361 C.3     1  UNL1        0.0160
     27 C         143.1373  143.7302  163.8625 C.3     1  UNL1        0.0404
     28 C         143.0966  145.2278  163.7893 C.3     1  UNL1        0.0156
     29 N         144.4383  143.9574  164.5736 N.3     1  UNL1       -0.3231
     30 C         143.4501  142.2800  164.0844 C.3     1  UNL1        0.0282
     31 C         144.6858  142.8104  164.7491 C.3     1  UNL1        0.0029
     32 C         144.0211  140.9408  164.4453 C.3     1  UNL1        0.0029
     33 H         144.6193  144.9590  164.6396 H       1  UNL1        0.1188
     34 H         145.1928  143.5091  164.0537 H       1  UNL1        0.1188
@<TRIPOS>BOND
     1    10    11    1
     2    11    12   ar
     3    12    13   ar
     4    13    14   ar
     5    14    15   ar
     6    15    16   ar
     7    16     1    1
     8     1     2   ar
     9     2     3   ar
    10     3     4   ar
    11     4    22    1
    12    24    22    1
    13    24    25    1
    14    25    26    1
    15    26    27    1
    16    27    28    1
    17    27    29    1
    18    27    30    1
    19    30    31    1
    20    30    32    1
    21     4     5   ar
    22     5    17    1
    23    17    18   am
    24    17    19    2
    25     5     6   ar
    26     6     7   ar
    27     7     8   ar
    28     8     9   ar
    29    16    11   ar
    30     9     1   ar
    31     8     3   ar
    32    30    24    1
    33    22    23    1
    34    29    33    1
    35    29    34    1
    36    18    20    1
    37    18    21    1
@<TRIPOS>MOLECULE
*****
 34 37 0 0 0
SMALL
GASTEIGER

@<TRIPOS>ATOM
      1 C         140.1845  140.4759  167.6536 C.ar    1  UNL1        0.0205
      2 C         140.7759  140.9938  166.3761 C.ar    1  UNL1        0.0219
      3 C         140.2506  140.1552  165.2488 C.ar    1  UNL1        0.0961
      4 C         140.4881  140.2012  163.7684 C.ar    1  UNL1        0.0685
      5 C         139.8096  139.2109  162.8689 C.ar    1  UNL1        0.0885
      6 C         138.8937  138.1748  163.4497 C.ar    1  UNL1        0.1263
      7 N         138.6562  138.1288  164.9301 N.ar    1  UNL1       -0.1633
      8 N         139.3347  139.1189  165.8296 N.ar    1  UNL1       -0.2270
      9 C         139.2938  139.3172  167.3159 C.ar    1  UNL1        0.1004
     10 C         142.3495  139.2918  169.3598 C.3     1  UNL1        0.0327
     11 C         141.5216  140.4290  169.8807 C.ar    1  UNL1       -0.0026
     12 C         141.7762  140.9742  171.2548 C.ar    1  UNL1        0.0946
     13 N         140.9483  142.1113  171.7758 N.ar    1  UNL1       -0.2426
     14 C         139.8658  142.7034  170.9228 C.ar    1  UNL1        0.0989
     15 C         139.6113  142.1582  169.5487 C.ar    1  UNL1        0.0204
     16 C         140.4391  141.0210  169.0277 C.ar    1  UNL1        0.0006
     17 C         140.0470  139.2570  161.3885 C.2     1  UNL1        0.2456
     18 N         138.8981  139.0887  160.4390 N.am    1  UNL1       -0.3252
     19 O         141.4335  139.4713  160.8576 O.2     1  UNL1       -0.2703
     20 H         137.9881  138.9480  160.7874 H       1  UNL1        0.1453
     21 H         139.0539  139.1189  159.4674 H       1  UNL1        0.1453
     22 N         141.4040  141.2374  163.1875 N.pl3   1  UNL1       -0.3327
     23 H         142.3644  141.0452  163.0877 H       1  UNL1        0.1468
     24 C         140.8566  142.5665  162.7587 C.3     1  UNL1        0.0702
     25 C         139.6689  142.7854  161.8692 C.3     1  UNL1        0.0208
     26 C         139.4790  144.2641  161.7048 C.3     1  UNL1        0.0160
     27 C         140.5495  144.9593  162.4927 C.3     1  UNL1        0.0404
     28 C         139.8932  146.2084  161.9839 C.3     1  UNL1        0.0156
     29 N         141.4828  145.9155  163.1742 N.3     1  UNL1       -0.3231
     30 C         141.4009  143.9101  163.1441 C.3     1  UNL1        0.0282
     31 C         142.1563  145.0857  163.6895 C.3     1  UNL1        0.0029
     32 C         142.4103  143.1066  163.9094 C.3     1  UNL1        0.0029
     33 H         141.2084  146.8731  162.9548 H       1  UNL1        0.1188
     34 H         142.4353  145.7516  162.8482 H       1  UNL1        0.1188
@<TRIPOS>BOND
     1    10    11    1
     2    11    12   ar
     3    12    13   ar
     4    13    14   ar
     5    14    15   ar
     6    15    16   ar
     7    16     1    1
     8     1     2   ar
     9     2     3   ar
    10     3     4   ar
    11     4    22    1
    12    24    22    1
    13    24    25    1
    14    25    26    1
    15    26    27    1
    16    27    28    1
    17    27    29    1
    18    27    30    1
    19    30    31    1
    20    30    32    1
    21     4     5   ar
    22     5    17    1
    23    17    18   am
    24    17    19    2
    25     5     6   ar
    26     6     7   ar
    27     7     8   ar
    28     8     9   ar
    29    16    11   ar
    30     9     1   ar
    31     8     3   ar
    32    30    24    1
    33    22    23    1
    34    29    33    1
    35    29    34    1
    36    18    20    1
    37    18    21    1
@<TRIPOS>MOLECULE
*****
 34 37 0 0 0
SMALL
GASTEIGER

@<TRIPOS>ATOM
      1 C         140.1531  142.7344  164.1027 C.ar    1  UNL1        0.0205
      2 C         140.6259  141.3836  164.5519 C.ar    1  UNL1        0.0219
      3 C         140.7644  141.4139  166.0452 C.ar    1  UNL1        0.0961
      4 C         141.1931  140.3713  167.0347 C.ar    1  UNL1        0.0685
      5 C         141.2346  140.6984  168.4981 C.ar    1  UNL1        0.0885
      6 C         140.8474  142.0679  168.9718 C.ar    1  UNL1        0.1263
      7 N         140.4187  143.1104  167.9822 N.ar    1  UNL1       -0.1633
      8 N         140.3772  142.7835  166.5189 N.ar    1  UNL1       -0.2270
      9 C         139.9994  143.5996  165.3184 C.ar    1  UNL1        0.1004
     10 C         137.6962  141.7426  162.6955 C.3     1  UNL1        0.0327
     11 C         138.6532  142.6516  161.9830 C.ar    1  UNL1       -0.0026
     12 C         138.3818  143.0648  160.5667 C.ar    1  UNL1        0.0946
     13 N         139.3388  143.9739  159.8541 N.ar    1  UNL1       -0.2426
     14 C         140.5672  144.4698  160.5577 C.ar    1  UNL1        0.0989
     15 C         140.8386  144.0566  161.9739 C.ar    1  UNL1        0.0204
     16 C         139.8816  143.1475  162.6865 C.ar    1  UNL1        0.0006
     17 C         141.6633  139.6558  169.4878 C.2     1  UNL1        0.2456
     18 N         140.7880  139.3313  170.6619 N.am    1  UNL1       -0.3252
     19 O         142.9672  138.9376  169.3032 O.2     1  UNL1       -0.2703
     20 H         139.9322  139.8027  170.7831 H       1  UNL1        0.1453
     21 H         141.0694  138.6471  171.3114 H       1  UNL1        0.1453
     22 N         141.5802  139.0017  166.5610 N.pl3   1  UNL1       -0.3327
     23 H         141.3578  138.2117  167.1047 H       1  UNL1        0.1468
     24 C         142.3063  138.8359  165.2590 C.3     1  UNL1        0.0702
     25 C         143.6391  139.4295  164.9109 C.3     1  UNL1        0.0208
     26 C         143.9835  139.0079  163.5132 C.3     1  UNL1        0.0160
     27 C         142.8635  138.1538  162.9974 C.3     1  UNL1        0.0404
     28 C         143.7027  138.0782  161.7564 C.3     1  UNL1        0.0156
     29 N         141.9189  137.2839  162.2222 N.3     1  UNL1       -0.3231
     30 C         141.8269  138.0475  164.0764 C.3     1  UNL1        0.0282
     31 C         141.0990  137.1998  163.0756 C.3     1  UNL1        0.0029
     32 C         140.6382  137.7640  164.9461 C.3     1  UNL1        0.0029
     33 H         142.3094  137.0966  161.2987 H       1  UNL1        0.1188
     34 H         141.0226  137.7602  162.1221 H       1  UNL1        0.1188
@<TRIPOS>BOND
     1    10    11    1
     2    11    12   ar
     3    12    13   ar
     4    13    14   ar
     5    14    15   ar
     6    15    16   ar
     7    16     1    1
     8     1     2   ar
     9     2     3   ar
    10     3     4   ar
    11     4    22    1
    12    24    22    1
    13    24    25    1
    14    25    26    1
    15    26    27    1
    16    27    28    1
    17    27    29    1
    18    27    30    1
    19    30    31    1
    20    30    32    1
    21     4     5   ar
    22     5    17    1
    23    17    18   am
    24    17    19    2
    25     5     6   ar
    26     6     7   ar
    27     7     8   ar
    28     8     9   ar
    29    16    11   ar
    30     9     1   ar
    31     8     3   ar
    32    30    24    1
    33    22    23    1
    34    29    33    1
    35    29    34    1
    36    18    20    1
    37    18    21    1
@<TRIPOS>MOLECULE
*****
 34 37 0 0 0
SMALL
GASTEIGER

@<TRIPOS>ATOM
      1 C         142.8613  139.1326  164.5087 C.ar    1  UNL1        0.0205
      2 C         141.8047  139.9953  165.1327 C.ar    1  UNL1        0.0219
      3 C         141.8760  139.8127  166.6199 C.ar    1  UNL1        0.0961
      4 C         141.0809  140.4087  167.7435 C.ar    1  UNL1        0.0685
      5 C         141.3864  140.0291  169.1622 C.ar    1  UNL1        0.0885
      6 C         142.4869  139.0536  169.4572 C.ar    1  UNL1        0.1263
      7 N         143.2820  138.4576  168.3336 N.ar    1  UNL1       -0.1633
      8 N         142.9766  138.8371  166.9149 N.ar    1  UNL1       -0.2270
      9 C         143.5855  138.4168  165.6101 C.ar    1  UNL1        0.1004
     10 C         141.2783  137.2114  162.8344 C.3     1  UNL1        0.0327
     11 C         142.3525  138.0470  162.2038 C.ar    1  UNL1       -0.0026
     12 C         142.6353  137.9221  160.7359 C.ar    1  UNL1        0.0946
     13 N         143.7096  138.7577  160.1052 N.ar    1  UNL1       -0.2426
     14 C         144.5010  139.7183  160.9424 C.ar    1  UNL1        0.0989
     15 C         144.2182  139.8432  162.4102 C.ar    1  UNL1        0.0204
     16 C         143.1440  139.0076  163.0409 C.ar    1  UNL1        0.0006
     17 C         140.5912  140.6252  170.2859 C.2     1  UNL1        0.2456
     18 N         139.8751  139.7313  171.2545 N.am    1  UNL1       -0.3252
     19 O         140.5122  142.1150  170.4409 O.2     1  UNL1       -0.2703
     20 H         139.9270  138.7534  171.1527 H       1  UNL1        0.1453
     21 H         139.3532  140.1225  171.9920 H       1  UNL1        0.1453
     22 N         139.9802  141.3843  167.4485 N.pl3   1  UNL1       -0.3327
     23 H         139.7438  142.0743  168.1097 H       1  UNL1        0.1468
     24 C         139.2400  141.3084  166.1461 C.3     1  UNL1        0.0702
     25 C         138.4814  140.1214  165.6309 C.3     1  UNL1        0.0208
     26 C         137.9009  140.4856  164.2966 C.3     1  UNL1        0.0160
     27 C         138.3008  141.8978  163.9871 C.3     1  UNL1        0.0404
     28 C         137.5228  141.6748  162.7242 C.3     1  UNL1        0.0156
     29 N         138.5379  143.2634  163.4136 N.3     1  UNL1       -0.3231
     30 C         139.1283  142.4064  165.1301 C.3     1  UNL1        0.0282
     31 C         139.1925  143.6657  164.3177 C.3     1  UNL1        0.0029
     32 C         139.9693  143.1781  166.1033 C.3     1  UNL1        0.0029
     33 H         138.0742  143.3371  162.5082 H       1  UNL1        0.1188
     34 H         139.5399  143.4133  163.2957 H       1  UNL1        0.1188
@<TRIPOS>BOND
     1    10    11    1
     2    11    12   ar
     3    12    13   ar
     4    13    14   ar
     5    14    15   ar
     6    15    16   ar
     7    16     1    1
     8     1     2   ar
     9     2     3   ar
    10     3     4   ar
    11     4    22    1
    12    24    22    1
    13    24    25    1
    14    25    26    1
    15    26    27    1
    16    27    28    1
    17    27    29    1
    18    27    30    1
    19    30    31    1
    20    30    32    1
    21     4     5   ar
    22     5    17    1
    23    17    18   am
    24    17    19    2
    25     5     6   ar
    26     6     7   ar
    27     7     8   ar
    28     8     9   ar
    29    16    11   ar
    30     9     1   ar
    31     8     3   ar
    32    30    24    1
    33    22    23    1
    34    29    33    1
    35    29    34    1
    36    18    20    1
    37    18    21    1
@<TRIPOS>MOLECULE
*****
 34 37 0 0 0
SMALL
GASTEIGER

@<TRIPOS>ATOM
      1 C         140.2058  140.8207  167.3029 C.ar    1  UNL1        0.0205
      2 C         140.0409  141.4430  165.9480 C.ar    1  UNL1        0.0219
      3 C         139.5683  140.3781  165.0033 C.ar    1  UNL1        0.0961
      4 C         139.2373  140.4089  163.5406 C.ar    1  UNL1        0.0685
      5 C         138.7792  139.1592  162.8488 C.ar    1  UNL1        0.0885
      6 C         138.6520  137.8789  163.6197 C.ar    1  UNL1        0.1263
      7 N         138.9830  137.8480  165.0824 N.ar    1  UNL1       -0.1633
      8 N         139.4411  139.0976  165.7742 N.ar    1  UNL1       -0.2270
      9 C         139.8351  139.3712  167.1954 C.ar    1  UNL1        0.1004
     10 C         142.9236  142.0874  167.3999 C.3     1  UNL1        0.0327
     11 C         142.0202  142.1577  168.5952 C.ar    1  UNL1       -0.0026
     12 C         142.4758  142.8613  169.8392 C.ar    1  UNL1        0.0946
     13 N         141.5725  142.9317  171.0347 N.ar    1  UNL1       -0.2426
     14 C         140.2136  142.2984  170.9862 C.ar    1  UNL1        0.0989
     15 C         139.7581  141.5947  169.7422 C.ar    1  UNL1        0.0204
     16 C         140.6614  141.5244  168.5468 C.ar    1  UNL1        0.0006
     17 C         138.4482  139.1900  161.3861 C.2     1  UNL1        0.2456
     18 N         137.0479  139.4906  160.9401 N.am    1  UNL1       -0.3252
     19 O         139.5176  138.9203  160.3693 O.2     1  UNL1       -0.2703
     20 H         136.3461  139.6676  161.6074 H       1  UNL1        0.1453
     21 H         136.8307  139.5108  159.9801 H       1  UNL1        0.1453
     22 N         139.3645  141.6893  162.7696 N.pl3   1  UNL1       -0.3327
     23 H         138.6259  141.9925  162.1935 H       1  UNL1        0.1468
     24 C         140.6169  142.5078  162.8764 C.3     1  UNL1        0.0702
     25 C         142.0202  141.9781  162.8636 C.3     1  UNL1        0.0208
     26 C         142.9565  143.1426  162.9940 C.3     1  UNL1        0.0160
     27 C         142.1320  144.3921  163.0875 C.3     1  UNL1        0.0404
     28 C         143.4638  145.0756  163.1839 C.3     1  UNL1        0.0156
     29 N         141.5859  145.7845  163.2011 N.3     1  UNL1       -0.3231
     30 C         140.6860  143.9999  163.0148 C.3     1  UNL1        0.0282
     31 C         140.4421  145.4743  163.1436 C.3     1  UNL1        0.0029
     32 C         139.1891  143.9158  162.9690 C.3     1  UNL1        0.0029
     33 H         142.3574  146.4469  163.2814 H       1  UNL1        0.1188
     34 H         140.9933  145.8509  164.0287 H       1  UNL1        0.1188
@<TRIPOS>BOND
     1    10    11    1
     2    11    12   ar
     3    12    13   ar
     4    13    14   ar
     5    14    15   ar
     6    15    16   ar
     7    16     1    1
     8     1     2   ar
     9     2     3   ar
    10     3     4   ar
    11     4    22    1
    12    24    22    1
    13    24    25    1
    14    25    26    1
    15    26    27    1
    16    27    28    1
    17    27    29    1
    18    27    30    1
    19    30    31    1
    20    30    32    1
    21     4     5   ar
    22     5    17    1
    23    17    18   am
    24    17    19    2
    25     5     6   ar
    26     6     7   ar
    27     7     8   ar
    28     8     9   ar
    29    16    11   ar
    30     9     1   ar
    31     8     3   ar
    32    30    24    1
    33    22    23    1
    34    29    33    1
    35    29    34    1
    36    18    20    1
    37    18    21    1
