@<TRIPOS>MOLECULE
*****
 39 43 0 0 0
SMALL
GASTEIGER

@<TRIPOS>ATOM
      1 N         139.7198  138.9199  162.6211 N.pl3   1  UNL1       -0.2598
      2 C         138.6856  137.9561  163.1224 C.2     1  UNL1        0.1681
      3 N         138.3124  137.9450  164.5752 N.2     1  UNL1       -0.2278
      4 C         138.9734  138.8977  165.5266 C.ar    1  UNL1        0.0806
      5 C         138.6002  138.8866  166.9795 C.ar    1  UNL1        0.0146
      6 C         139.2612  139.8394  167.9309 C.ar    1  UNL1       -0.0204
      7 C         138.8880  139.8283  169.3837 C.3     1  UNL1        0.0311
      8 C         140.2954  140.8033  167.4296 C.ar    1  UNL1       -0.0039
      9 C         140.6686  140.8144  165.9768 C.ar    1  UNL1       -0.0010
     10 C         140.0076  139.8616  165.0253 C.ar    1  UNL1        0.0225
     11 C         140.3808  139.8727  163.5726 C.3     1  UNL1        0.1793
     12 C         140.9564  141.7561  168.3810 C.ar    1  UNL1        0.0049
     13 C         140.1847  142.9152  168.9388 C.ar    1  UNL1        0.0368
     14 C         140.8457  143.8680  169.8903 C.ar    1  UNL1        0.1359
     15 O         140.0741  145.0271  170.4480 O.3     1  UNL1       -0.5054
     16 C         142.2784  143.6617  170.2840 C.ar    1  UNL1        0.0662
     17 C         143.0500  142.5026  169.7262 C.ar    1  UNL1        0.1432
     18 F         144.4826  142.2964  170.1199 F       1  UNL1       -0.2041
     19 C         142.3890  141.5498  168.7747 C.ar    1  UNL1        0.0298
     20 H         139.1791  145.1559  170.2021 H       1  UNL1        0.2922
     21 C         138.7224  140.3618  157.7297 C.3     1  UNL1        0.0311
     22 C         139.5943  139.6520  158.7226 C.ar    1  UNL1       -0.0198
     23 C         140.8395  138.9534  158.2627 C.ar    1  UNL1        0.0072
     24 C         141.7115  138.2436  159.2556 C.ar    1  UNL1        0.0586
     25 CL        142.9566  137.5449  158.7958 Cl      1  UNL1       -0.0822
     26 C         141.3382  138.2324  160.7084 C.ar    1  UNL1        0.0263
     27 C         140.0931  138.9311  161.1683 C.ar    1  UNL1        0.0540
     28 C         139.2211  139.6409  160.1754 C.ar    1  UNL1        0.0107
     29 C         141.4151  140.8366  163.0712 C.2     1  UNL1        0.2485
     30 O         140.9945  142.1601  162.5041 O.2     1  UNL1       -0.2727
     31 N         142.8698  140.4771  163.1370 N.am    1  UNL1       -0.2748
     32 C         143.2904  139.1535  163.7041 C.3     1  UNL1        0.1150
     33 C         143.9041  141.4409  162.6357 C.3     1  UNL1        0.1091
     34 C         143.9029  142.8608  163.1192 C.3     1  UNL1        0.0741
     35 C         144.1901  143.3157  164.5194 C.3     1  UNL1        0.0189
     36 C         144.0790  144.8112  164.5530 C.3     1  UNL1        0.0185
     37 C         143.7232  145.2806  163.1735 C.3     1  UNL1        0.0686
     38 N         143.6144  144.0752  162.2873 N.3     1  UNL1       -0.2972
     39 H         144.2907  144.1425  161.5268 H       1  UNL1        0.1233
@<TRIPOS>BOND
     1    21    22    1
     2    22    23   ar
     3    23    24   ar
     4    24    25    1
     5    24    26   ar
     6    26    27   ar
     7    27     1    1
     8     1     2    1
     9     2     3    2
    10     3     4    1
    11     4     5   ar
    12     5     6   ar
    13     6     7    1
    14     6     8   ar
    15     8    12    1
    16    12    13   ar
    17    13    14   ar
    18    14    15    1
    19    14    16   ar
    20    16    17   ar
    21    17    18    1
    22    17    19   ar
    23     8     9   ar
    24     9    10   ar
    25    10    11    1
    26    11    29    1
    27    29    30    2
    28    29    31   am
    29    31    32    1
    30    31    33    1
    31    34    33    1
    32    34    35    1
    33    35    36    1
    34    36    37    1
    35    37    38    1
    36    27    28   ar
    37    28    22   ar
    38    11     1    1
    39    38    34    1
    40    10     4   ar
    41    19    12   ar
    42    15    20    1
    43    38    39    1
@<TRIPOS>MOLECULE
*****
 39 43 0 0 0
SMALL
GASTEIGER

@<TRIPOS>ATOM
      1 N         139.7972  139.3282  162.2523 N.pl3   1  UNL1       -0.2598
      2 C         138.8000  138.2964  162.6892 C.2     1  UNL1        0.1681
      3 N         138.4371  138.1709  164.1392 N.2     1  UNL1       -0.2278
      4 C         139.0714  139.0772  165.1523 C.ar    1  UNL1        0.0806
      5 C         138.7085  138.9516  166.6023 C.ar    1  UNL1        0.0146
      6 C         139.3428  139.8579  167.6154 C.ar    1  UNL1       -0.0204
      7 C         138.9800  139.7324  169.0654 C.3     1  UNL1        0.0311
      8 C         140.3401  140.8898  167.1784 C.ar    1  UNL1       -0.0039
      9 C         140.7030  141.0153  165.7284 C.ar    1  UNL1       -0.0010
     10 C         140.0686  140.1090  164.7153 C.ar    1  UNL1        0.0225
     11 C         140.4315  140.2345  163.2653 C.3     1  UNL1        0.1793
     12 C         140.9744  141.7960  168.1914 C.ar    1  UNL1        0.0049
     13 C         140.1817  142.9172  168.7953 C.ar    1  UNL1        0.0368
     14 C         140.8160  143.8235  169.8084 C.ar    1  UNL1        0.1359
     15 O         140.0233  144.9446  170.4123 O.3     1  UNL1       -0.5054
     16 C         142.2431  143.6086  170.2175 C.ar    1  UNL1        0.0662
     17 C         143.0358  142.4875  169.6136 C.ar    1  UNL1        0.1432
     18 F         144.4628  142.2727  170.0228 F       1  UNL1       -0.2041
     19 C         142.4014  141.5812  168.6006 C.ar    1  UNL1        0.0298
     20 H         139.1319  145.0788  170.1567 H       1  UNL1        0.2922
     21 C         139.1428  141.6123  157.6312 C.3     1  UNL1        0.0311
     22 C         139.8329  140.5958  158.4917 C.ar    1  UNL1       -0.0198
     23 C         140.8859  139.7048  157.9022 C.ar    1  UNL1        0.0072
     24 C         141.5760  138.6884  158.7627 C.ar    1  UNL1        0.0586
     25 CL        142.6289  137.7974  158.1733 Cl      1  UNL1       -0.0822
     26 C         141.2131  138.5628  160.2128 C.ar    1  UNL1        0.0263
     27 C         140.1601  139.4537  160.8022 C.ar    1  UNL1        0.0540
     28 C         139.4700  140.4702  159.9417 C.ar    1  UNL1        0.0107
     29 C         141.4288  141.2663  162.8283 C.2     1  UNL1        0.2485
     30 O         142.8851  140.9157  162.7494 O.2     1  UNL1       -0.2727
     31 N         140.9696  142.6487  162.4703 N.am    1  UNL1       -0.2748
     32 C         139.5133  142.9992  162.5492 C.3     1  UNL1        0.1150
     33 C         141.9668  143.6805  162.0333 C.3     1  UNL1        0.1091
     34 C         142.0326  144.0976  160.5939 C.3     1  UNL1        0.0741
     35 C         142.5018  143.2479  159.4503 C.3     1  UNL1        0.0189
     36 C         142.4000  144.0628  158.1951 C.3     1  UNL1        0.0185
     37 C         141.8679  145.4162  158.5629 C.3     1  UNL1        0.0686
     38 N         141.6409  145.4376  160.0455 N.3     1  UNL1       -0.2972
     39 H         140.6564  145.6178  160.2423 H       1  UNL1        0.1233
@<TRIPOS>BOND
     1    21    22    1
     2    22    23   ar
     3    23    24   ar
     4    24    25    1
     5    24    26   ar
     6    26    27   ar
     7    27     1    1
     8     1     2    1
     9     2     3    2
    10     3     4    1
    11     4     5   ar
    12     5     6   ar
    13     6     7    1
    14     6     8   ar
    15     8    12    1
    16    12    13   ar
    17    13    14   ar
    18    14    15    1
    19    14    16   ar
    20    16    17   ar
    21    17    18    1
    22    17    19   ar
    23     8     9   ar
    24     9    10   ar
    25    10    11    1
    26    11    29    1
    27    29    30    2
    28    29    31   am
    29    31    32    1
    30    31    33    1
    31    34    33    1
    32    34    35    1
    33    35    36    1
    34    36    37    1
    35    37    38    1
    36    27    28   ar
    37    28    22   ar
    38    11     1    1
    39    38    34    1
    40    10     4   ar
    41    19    12   ar
    42    15    20    1
    43    38    39    1
@<TRIPOS>MOLECULE
*****
 39 43 0 0 0
SMALL
GASTEIGER

@<TRIPOS>ATOM
      1 N         139.8050  139.1008  162.4840 N.pl3   1  UNL1       -0.2598
      2 C         138.7464  138.1371  162.9321 C.2     1  UNL1        0.1681
      3 N         138.3439  138.0834  164.3760 N.2     1  UNL1       -0.2278
      4 C         138.9998  138.9933  165.3719 C.ar    1  UNL1        0.0806
      5 C         138.5972  138.9395  166.8159 C.ar    1  UNL1        0.0146
      6 C         139.2532  139.8494  167.8118 C.ar    1  UNL1       -0.0204
      7 C         138.8506  139.7956  169.2557 C.3     1  UNL1        0.0311
      8 C         140.3118  140.8131  167.3637 C.ar    1  UNL1       -0.0039
      9 C         140.7143  140.8668  165.9197 C.ar    1  UNL1       -0.0010
     10 C         140.0584  139.9569  164.9239 C.ar    1  UNL1        0.0225
     11 C         140.4609  140.0107  163.4799 C.3     1  UNL1        0.1793
     12 C         140.9678  141.7230  168.3596 C.ar    1  UNL1        0.0049
     13 C         142.3421  141.4082  168.8716 C.ar    1  UNL1        0.0368
     14 C         142.9981  142.3181  169.8675 C.ar    1  UNL1        0.1359
     15 O         144.3724  142.0033  170.3795 O.3     1  UNL1       -0.5054
     16 C         142.2797  143.5428  170.3513 C.ar    1  UNL1        0.0662
     17 C         140.9054  143.8576  169.8393 C.ar    1  UNL1        0.1432
     18 F         140.1871  145.0822  170.3231 F       1  UNL1       -0.2041
     19 C         140.2494  142.9476  168.8434 C.ar    1  UNL1        0.0298
     20 H         144.8211  141.2383  170.0772 H       1  UNL1        0.2922
     21 C         139.1843  141.0541  157.7092 C.3     1  UNL1        0.0311
     22 C         139.8972  140.1313  158.6526 C.ar    1  UNL1       -0.0198
     23 C         141.0128  139.2622  158.1521 C.ar    1  UNL1        0.0072
     24 C         141.7257  138.3394  159.0956 C.ar    1  UNL1        0.0586
     25 CL        142.8411  137.4704  158.5951 Cl      1  UNL1       -0.0822
     26 C         141.3231  138.2856  160.5396 C.ar    1  UNL1        0.0263
     27 C         140.2076  139.1546  161.0400 C.ar    1  UNL1        0.0540
     28 C         139.4947  140.0774  160.0966 C.ar    1  UNL1        0.0107
     29 C         141.5195  140.9744  163.0318 C.2     1  UNL1        0.2485
     30 O         141.1331  142.3382  162.5413 O.2     1  UNL1       -0.2727
     31 N         142.9645  140.5742  163.0742 N.am    1  UNL1       -0.2748
     32 C         143.3510  139.2103  163.5647 C.3     1  UNL1        0.1150
     33 C         144.0231  141.5378  162.6261 C.3     1  UNL1        0.1091
     34 C         144.0154  142.9495  163.1331 C.3     1  UNL1        0.0741
     35 C         144.1932  143.3747  164.5605 C.3     1  UNL1        0.0189
     36 C         144.1162  144.8719  164.6113 C.3     1  UNL1        0.0185
     37 C         143.8908  145.3720  163.2152 C.3     1  UNL1        0.0686
     38 N         143.8285  144.1840  162.3017 N.3     1  UNL1       -0.2972
     39 H         144.5687  144.2457  161.6025 H       1  UNL1        0.1233
@<TRIPOS>BOND
     1    21    22    1
     2    22    23   ar
     3    23    24   ar
     4    24    25    1
     5    24    26   ar
     6    26    27   ar
     7    27     1    1
     8     1     2    1
     9     2     3    2
    10     3     4    1
    11     4     5   ar
    12     5     6   ar
    13     6     7    1
    14     6     8   ar
    15     8    12    1
    16    12    13   ar
    17    13    14   ar
    18    14    15    1
    19    14    16   ar
    20    16    17   ar
    21    17    18    1
    22    17    19   ar
    23     8     9   ar
    24     9    10   ar
    25    10    11    1
    26    11    29    1
    27    29    30    2
    28    29    31   am
    29    31    32    1
    30    31    33    1
    31    34    33    1
    32    34    35    1
    33    35    36    1
    34    36    37    1
    35    37    38    1
    36    27    28   ar
    37    28    22   ar
    38    11     1    1
    39    38    34    1
    40    10     4   ar
    41    19    12   ar
    42    15    20    1
    43    38    39    1
@<TRIPOS>MOLECULE
*****
 39 43 0 0 0
SMALL
GASTEIGER

@<TRIPOS>ATOM
      1 N         139.6450  139.3991  162.3151 N.pl3   1  UNL1       -0.2598
      2 C         138.6754  138.3487  162.7694 C.2     1  UNL1        0.1681
      3 N         138.3551  138.2041  164.2276 N.2     1  UNL1       -0.2278
      4 C         139.0043  139.1100  165.2315 C.ar    1  UNL1        0.0806
      5 C         138.6839  138.9654  166.6898 C.ar    1  UNL1        0.0146
      6 C         139.3332  139.8713  167.6937 C.ar    1  UNL1       -0.0204
      7 C         139.0128  139.7267  169.1519 C.3     1  UNL1        0.0311
      8 C         140.3028  140.9218  167.2394 C.ar    1  UNL1       -0.0039
      9 C         140.6231  141.0664  165.7811 C.ar    1  UNL1       -0.0010
     10 C         139.9739  140.1605  164.7772 C.ar    1  UNL1        0.0225
     11 C         140.2942  140.3050  163.3190 C.3     1  UNL1        0.1793
     12 C         140.9520  141.8277  168.2433 C.ar    1  UNL1        0.0049
     13 C         140.1753  142.9628  168.8419 C.ar    1  UNL1        0.0368
     14 C         140.8245  143.8687  169.8459 C.ar    1  UNL1        0.1359
     15 O         140.0478  145.0037  170.4445 O.3     1  UNL1       -0.5054
     16 C         142.2505  143.6395  170.2511 C.ar    1  UNL1        0.0662
     17 C         143.0271  142.5044  169.6525 C.ar    1  UNL1        0.1432
     18 F         144.4530  142.2753  170.0577 F       1  UNL1       -0.2041
     19 C         142.3779  141.5985  168.6485 C.ar    1  UNL1        0.0298
     20 H         139.1571  145.1469  170.1914 H       1  UNL1        0.2922
     21 C         142.4819  138.0507  158.1758 C.3     1  UNL1        0.0311
     22 C         141.3839  138.8695  158.7872 C.ar    1  UNL1       -0.0198
     23 C         140.6062  139.8329  157.9403 C.ar    1  UNL1        0.0072
     24 C         139.5081  140.6517  158.5517 C.ar    1  UNL1        0.0586
     25 CL        138.7305  141.6151  157.7049 Cl      1  UNL1       -0.0822
     26 C         139.1877  140.5071  160.0100 C.ar    1  UNL1        0.0263
     27 C         139.9654  139.5438  160.8568 C.ar    1  UNL1        0.0540
     28 C         141.0635  138.7249  160.2454 C.ar    1  UNL1        0.0107
     29 C         141.2639  141.3555  162.8646 C.2     1  UNL1        0.2485
     30 O         142.7261  141.0353  162.7685 O.2     1  UNL1       -0.2727
     31 N         140.7712  142.7263  162.5065 N.am    1  UNL1       -0.2748
     32 C         139.3089  143.0465  162.6026 C.3     1  UNL1        0.1150
     33 C         141.7407  143.7768  162.0521 C.3     1  UNL1        0.1091
     34 C         141.8579  144.1089  160.5941 C.3     1  UNL1        0.0741
     35 C         142.2263  143.1526  159.4987 C.3     1  UNL1        0.0189
     36 C         142.2233  143.9084  158.2030 C.3     1  UNL1        0.0185
     37 C         141.8531  145.3318  158.4976 C.3     1  UNL1        0.0686
     38 N         141.6272  145.4557  159.9753 N.3     1  UNL1       -0.2972
     39 H         140.6703  145.7599  160.1549 H       1  UNL1        0.1233
@<TRIPOS>BOND
     1    21    22    1
     2    22    23   ar
     3    23    24   ar
     4    24    25    1
     5    24    26   ar
     6    26    27   ar
     7    27     1    1
     8     1     2    1
     9     2     3    2
    10     3     4    1
    11     4     5   ar
    12     5     6   ar
    13     6     7    1
    14     6     8   ar
    15     8    12    1
    16    12    13   ar
    17    13    14   ar
    18    14    15    1
    19    14    16   ar
    20    16    17   ar
    21    17    18    1
    22    17    19   ar
    23     8     9   ar
    24     9    10   ar
    25    10    11    1
    26    11    29    1
    27    29    30    2
    28    29    31   am
    29    31    32    1
    30    31    33    1
    31    34    33    1
    32    34    35    1
    33    35    36    1
    34    36    37    1
    35    37    38    1
    36    27    28   ar
    37    28    22   ar
    38    11     1    1
    39    38    34    1
    40    10     4   ar
    41    19    12   ar
    42    15    20    1
    43    38    39    1
@<TRIPOS>MOLECULE
*****
 39 43 0 0 0
SMALL
GASTEIGER

@<TRIPOS>ATOM
      1 N         142.3361  139.2739  161.7651 N.pl3   1  UNL1       -0.2598
      2 C         143.5042  138.3828  162.0671 C.2     1  UNL1        0.1681
      3 N         143.9064  138.1299  163.4899 N.2     1  UNL1       -0.2278
      4 C         143.1405  138.7682  164.6106 C.ar    1  UNL1        0.0806
      5 C         143.5427  138.5153  166.0334 C.ar    1  UNL1        0.0146
      6 C         142.7768  139.1536  167.1541 C.ar    1  UNL1       -0.0204
      7 C         143.1790  138.9007  168.5768 C.3     1  UNL1        0.0311
      8 C         141.6086  140.0448  166.8519 C.ar    1  UNL1       -0.0039
      9 C         141.2065  140.2977  165.4292 C.ar    1  UNL1       -0.0010
     10 C         141.9724  139.6594  164.3085 C.ar    1  UNL1        0.0225
     11 C         141.5702  139.9122  162.8858 C.3     1  UNL1        0.1793
     12 C         140.8427  140.6831  167.9726 C.ar    1  UNL1        0.0049
     13 C         139.7803  139.9066  168.6927 C.ar    1  UNL1        0.0368
     14 C         139.0144  140.5449  169.8133 C.ar    1  UNL1        0.1359
     15 O         137.9520  139.7685  170.5334 O.3     1  UNL1       -0.5054
     16 C         139.3109  141.9598  170.2140 C.ar    1  UNL1        0.0662
     17 C         140.3733  142.7362  169.4939 C.ar    1  UNL1        0.1432
     18 F         140.6697  144.1509  169.8946 F       1  UNL1       -0.2041
     19 C         141.1392  142.0979  168.3733 C.ar    1  UNL1        0.0298
     20 H         137.7668  138.8847  170.2831 H       1  UNL1        0.2922
     21 C         142.4760  142.2546  157.5111 C.3     1  UNL1        0.0311
     22 C         142.0038  141.0172  158.2153 C.ar    1  UNL1       -0.0198
     23 C         141.1294  140.0327  157.4967 C.ar    1  UNL1        0.0072
     24 C         140.6573  138.7953  158.2009 C.ar    1  UNL1        0.0586
     25 CL        139.7829  137.8108  157.4824 Cl      1  UNL1       -0.0822
     26 C         141.0595  138.5424  159.6237 C.ar    1  UNL1        0.0263
     27 C         141.9339  139.5268  160.3423 C.ar    1  UNL1        0.0540
     28 C         142.4060  140.7642  159.6381 C.ar    1  UNL1        0.0107
     29 C         140.4020  140.8035  162.5836 C.2     1  UNL1        0.2485
     30 O         140.6141  142.2741  162.3782 O.2     1  UNL1       -0.2727
     31 N         139.0219  140.2240  162.4869 N.am    1  UNL1       -0.2748
     32 C         138.8099  138.7533  162.6923 C.3     1  UNL1        0.1150
     33 C         137.8538  141.1151  162.1848 C.3     1  UNL1        0.1091
     34 C         137.7580  142.4688  162.8239 C.3     1  UNL1        0.0741
     35 C         137.6383  142.7434  164.2937 C.3     1  UNL1        0.0189
     36 C         137.5715  144.2298  164.4836 C.3     1  UNL1        0.0185
     37 C         137.6500  144.8739  163.1312 C.3     1  UNL1        0.0686
     38 N         137.7653  143.7855  162.1055 N.3     1  UNL1       -0.2972
     39 H         138.6362  143.8911  161.5851 H       1  UNL1        0.1233
@<TRIPOS>BOND
     1    21    22    1
     2    22    23   ar
     3    23    24   ar
     4    24    25    1
     5    24    26   ar
     6    26    27   ar
     7    27     1    1
     8     1     2    1
     9     2     3    2
    10     3     4    1
    11     4     5   ar
    12     5     6   ar
    13     6     7    1
    14     6     8   ar
    15     8    12    1
    16    12    13   ar
    17    13    14   ar
    18    14    15    1
    19    14    16   ar
    20    16    17   ar
    21    17    18    1
    22    17    19   ar
    23     8     9   ar
    24     9    10   ar
    25    10    11    1
    26    11    29    1
    27    29    30    2
    28    29    31   am
    29    31    32    1
    30    31    33    1
    31    34    33    1
    32    34    35    1
    33    35    36    1
    34    36    37    1
    35    37    38    1
    36    27    28   ar
    37    28    22   ar
    38    11     1    1
    39    38    34    1
    40    10     4   ar
    41    19    12   ar
    42    15    20    1
    43    38    39    1
@<TRIPOS>MOLECULE
*****
 39 43 0 0 0
SMALL
GASTEIGER

@<TRIPOS>ATOM
      1 N         143.1979  140.0300  161.9480 N.pl3   1  UNL1       -0.2598
      2 C         144.1442  138.9066  162.2518 C.2     1  UNL1        0.1681
      3 N         144.2992  138.4170  163.6611 N.2     1  UNL1       -0.2278
      4 C         143.5079  139.0508  164.7666 C.ar    1  UNL1        0.0806
      5 C         143.6630  138.5611  166.1760 C.ar    1  UNL1        0.0146
      6 C         142.8717  139.1949  167.2815 C.ar    1  UNL1       -0.0204
      7 C         143.0267  138.7054  168.6908 C.3     1  UNL1        0.0311
      8 C         141.9253  140.3184  166.9776 C.ar    1  UNL1       -0.0039
      9 C         141.7702  140.8080  165.5683 C.ar    1  UNL1       -0.0010
     10 C         142.5616  140.1742  164.4628 C.ar    1  UNL1        0.0225
     11 C         142.4065  140.6638  163.0535 C.3     1  UNL1        0.1793
     12 C         141.1339  140.9522  168.0831 C.ar    1  UNL1        0.0049
     13 C         140.0405  140.1804  168.7605 C.ar    1  UNL1        0.0368
     14 C         139.2491  140.8142  169.8660 C.ar    1  UNL1        0.1359
     15 O         138.1557  140.0425  170.5434 O.3     1  UNL1       -0.5054
     16 C         139.5513  142.2198  170.2941 C.ar    1  UNL1        0.0662
     17 C         140.6447  142.9915  169.6167 C.ar    1  UNL1        0.1432
     18 F         140.9467  144.3970  170.0447 F       1  UNL1       -0.2041
     19 C         141.4360  142.3577  168.5112 C.ar    1  UNL1        0.0298
     20 H         137.9670  139.1645  170.2760 H       1  UNL1        0.2922
     21 C         140.5034  140.1815  157.5076 C.3     1  UNL1        0.0311
     22 C         141.6955  140.5954  158.3185 C.ar    1  UNL1       -0.0198
     23 C         142.7326  141.4989  157.7199 C.ar    1  UNL1        0.0072
     24 C         143.9248  141.9127  158.5308 C.ar    1  UNL1        0.0586
     25 CL        144.9619  142.8162  157.9323 Cl      1  UNL1       -0.0822
     26 C         144.0799  141.4231  159.9402 C.ar    1  UNL1        0.0263
     27 C         143.0428  140.5196  160.5386 C.ar    1  UNL1        0.0540
     28 C         141.8506  140.1058  159.7278 C.ar    1  UNL1        0.0107
     29 C         141.4601  141.7872  162.7496 C.2     1  UNL1        0.2485
     30 O         140.0202  141.4942  162.4484 O.2     1  UNL1       -0.2727
     31 N         141.9537  143.2037  162.7469 N.am    1  UNL1       -0.2748
     32 C         143.3937  143.4967  163.0481 C.3     1  UNL1        0.1150
     33 C         141.0074  144.3271  162.4430 C.3     1  UNL1        0.1091
     34 C         139.6823  144.4013  163.1419 C.3     1  UNL1        0.0741
     35 C         139.4694  144.6685  164.6024 C.3     1  UNL1        0.0189
     36 C         137.9929  144.6536  164.8661 C.3     1  UNL1        0.0185
     37 C         137.2931  144.3772  163.5685 C.3     1  UNL1        0.0686
     38 N         138.3372  144.2213  162.5028 N.3     1  UNL1       -0.2972
     39 H         138.2008  144.9266  161.7787 H       1  UNL1        0.1233
@<TRIPOS>BOND
     1    21    22    1
     2    22    23   ar
     3    23    24   ar
     4    24    25    1
     5    24    26   ar
     6    26    27   ar
     7    27     1    1
     8     1     2    1
     9     2     3    2
    10     3     4    1
    11     4     5   ar
    12     5     6   ar
    13     6     7    1
    14     6     8   ar
    15     8    12    1
    16    12    13   ar
    17    13    14   ar
    18    14    15    1
    19    14    16   ar
    20    16    17   ar
    21    17    18    1
    22    17    19   ar
    23     8     9   ar
    24     9    10   ar
    25    10    11    1
    26    11    29    1
    27    29    30    2
    28    29    31   am
    29    31    32    1
    30    31    33    1
    31    34    33    1
    32    34    35    1
    33    35    36    1
    34    36    37    1
    35    37    38    1
    36    27    28   ar
    37    28    22   ar
    38    11     1    1
    39    38    34    1
    40    10     4   ar
    41    19    12   ar
    42    15    20    1
    43    38    39    1
@<TRIPOS>MOLECULE
*****
 39 43 0 0 0
SMALL
GASTEIGER

@<TRIPOS>ATOM
      1 N         143.1618  140.0108  162.0115 N.pl3   1  UNL1       -0.2598
      2 C         144.0845  138.8655  162.3064 C.2     1  UNL1        0.1681
      3 N         144.2397  138.3708  163.7139 N.2     1  UNL1       -0.2278
      4 C         143.4722  139.0213  164.8265 C.ar    1  UNL1        0.0806
      5 C         143.6273  138.5265  166.2340 C.ar    1  UNL1        0.0146
      6 C         142.8598  139.1770  167.3466 C.ar    1  UNL1       -0.0204
      7 C         143.0150  138.6823  168.7541 C.3     1  UNL1        0.0311
      8 C         141.9371  140.3223  167.0515 C.ar    1  UNL1       -0.0039
      9 C         141.7819  140.8171  165.6440 C.ar    1  UNL1       -0.0010
     10 C         142.5495  140.1665  164.5315 C.ar    1  UNL1        0.0225
     11 C         142.3943  140.6613  163.1240 C.3     1  UNL1        0.1793
     12 C         141.1696  140.9728  168.1641 C.ar    1  UNL1        0.0049
     13 C         141.6405  142.2762  168.7381 C.ar    1  UNL1        0.0368
     14 C         140.8730  142.9267  169.8506 C.ar    1  UNL1        0.1359
     15 O         141.3439  144.2301  170.4247 O.3     1  UNL1       -0.5054
     16 C         139.6345  142.2739  170.3892 C.ar    1  UNL1        0.0662
     17 C         139.1636  140.9705  169.8151 C.ar    1  UNL1        0.1432
     18 F         137.9252  140.3177  170.3537 F       1  UNL1       -0.2041
     19 C         139.9311  140.3200  168.7026 C.ar    1  UNL1        0.0298
     20 H         142.1176  144.6379  170.0883 H       1  UNL1        0.2922
     21 C         144.9904  142.7025  157.9604 C.3     1  UNL1        0.0311
     22 C         143.9210  141.8514  158.5784 C.ar    1  UNL1       -0.0198
     23 C         142.6963  141.4951  157.7888 C.ar    1  UNL1        0.0072
     24 C         141.6268  140.6440  158.4068 C.ar    1  UNL1        0.0586
     25 CL        140.4022  140.2877  157.6173 Cl      1  UNL1       -0.0822
     26 C         141.7820  140.1492  159.8144 C.ar    1  UNL1        0.0263
     27 C         143.0066  140.5055  160.6039 C.ar    1  UNL1        0.0540
     28 C         144.0761  141.3566  159.9859 C.ar    1  UNL1        0.0107
     29 C         141.4716  141.8066  162.8290 C.2     1  UNL1        0.2485
     30 O         140.0223  141.5473  162.5420 O.2     1  UNL1       -0.2727
     31 N         141.9982  143.2111  162.8209 N.am    1  UNL1       -0.2748
     32 C         143.4476  143.4702  163.1079 C.3     1  UNL1        0.1150
     33 C         141.0756  144.3563  162.5259 C.3     1  UNL1        0.1091
     34 C         139.7336  144.4291  163.1920 C.3     1  UNL1        0.0741
     35 C         139.4862  144.6452  164.6556 C.3     1  UNL1        0.0189
     36 C         138.0030  144.6482  164.8796 C.3     1  UNL1        0.0185
     37 C         137.3337  144.4338  163.5544 C.3     1  UNL1        0.0686
     38 N         138.4032  144.2984  162.5115 N.3     1  UNL1       -0.2972
     39 H         138.2989  145.0328  161.8114 H       1  UNL1        0.1233
@<TRIPOS>BOND
     1    21    22    1
     2    22    23   ar
     3    23    24   ar
     4    24    25    1
     5    24    26   ar
     6    26    27   ar
     7    27     1    1
     8     1     2    1
     9     2     3    2
    10     3     4    1
    11     4     5   ar
    12     5     6   ar
    13     6     7    1
    14     6     8   ar
    15     8    12    1
    16    12    13   ar
    17    13    14   ar
    18    14    15    1
    19    14    16   ar
    20    16    17   ar
    21    17    18    1
    22    17    19   ar
    23     8     9   ar
    24     9    10   ar
    25    10    11    1
    26    11    29    1
    27    29    30    2
    28    29    31   am
    29    31    32    1
    30    31    33    1
    31    34    33    1
    32    34    35    1
    33    35    36    1
    34    36    37    1
    35    37    38    1
    36    27    28   ar
    37    28    22   ar
    38    11     1    1
    39    38    34    1
    40    10     4   ar
    41    19    12   ar
    42    15    20    1
    43    38    39    1
@<TRIPOS>MOLECULE
*****
 39 43 0 0 0
SMALL
GASTEIGER

@<TRIPOS>ATOM
      1 N         139.9039  143.7561  161.3484 N.pl3   1  UNL1       -0.2598
      2 C         140.5753  144.9010  160.6496 C.2     1  UNL1        0.1681
      3 N         140.4888  145.0234  159.1572 N.2     1  UNL1       -0.2278
      4 C         139.7307  144.0010  158.3635 C.ar    1  UNL1        0.0806
      5 C         139.6442  144.1235  156.8709 C.ar    1  UNL1        0.0146
      6 C         138.8862  143.1010  156.0772 C.ar    1  UNL1       -0.0204
      7 C         138.7996  143.2234  154.5848 C.3     1  UNL1        0.0311
      8 C         138.2147  141.9560  156.7761 C.ar    1  UNL1       -0.0039
      9 C         138.3013  141.8336  158.2685 C.ar    1  UNL1       -0.0010
     10 C         139.0593  142.8561  159.0622 C.ar    1  UNL1        0.0225
     11 C         139.1458  142.7337  160.5547 C.3     1  UNL1        0.1793
     12 C         137.4567  140.9336  155.9824 C.ar    1  UNL1        0.0049
     13 C         135.9685  141.0508  155.8352 C.ar    1  UNL1        0.0368
     14 C         135.2104  140.0283  155.0415 C.ar    1  UNL1        0.1359
     15 O         133.7223  140.1455  154.8944 O.3     1  UNL1       -0.5054
     16 C         135.9406  138.8886  154.3950 C.ar    1  UNL1        0.0662
     17 C         137.4288  138.7715  154.5421 C.ar    1  UNL1        0.1432
     18 F         138.1589  137.6318  153.8955 F       1  UNL1       -0.2041
     19 C         138.1868  139.7939  155.3358 C.ar    1  UNL1        0.0298
     20 H         133.2662  140.8574  155.2983 H       1  UNL1        0.2922
     21 C         141.9851  141.5539  165.5696 C.3     1  UNL1        0.0311
     22 C         141.0310  142.5325  164.9515 C.ar    1  UNL1       -0.0198
     23 C         140.1635  143.3887  165.8259 C.ar    1  UNL1        0.0072
     24 C         139.2094  144.3673  165.2078 C.ar    1  UNL1        0.0586
     25 CL        138.3419  145.2234  166.0821 Cl      1  UNL1       -0.0822
     26 C         139.1229  144.4898  163.7152 C.ar    1  UNL1        0.0263
     27 C         139.9904  143.6337  162.8409 C.ar    1  UNL1        0.0540
     28 C         140.9444  142.6550  163.4591 C.ar    1  UNL1        0.0107
     29 C         138.4743  141.5887  161.2535 C.2     1  UNL1        0.2485
     30 O         137.1208  141.7773  161.8718 O.2     1  UNL1       -0.2727
     31 N         139.1564  140.2552  161.3340 N.am    1  UNL1       -0.2748
     32 C         140.5100  140.0666  160.7156 C.3     1  UNL1        0.1150
     33 C         138.4850  139.1103  162.0328 C.3     1  UNL1        0.1091
     34 C         138.4760  139.0477  163.5314 C.3     1  UNL1        0.0741
     35 C         138.9659  137.9039  164.3691 C.3     1  UNL1        0.0189
     36 C         138.7681  138.2672  165.8109 C.3     1  UNL1        0.0185
     37 C         138.1560  139.6355  165.8644 C.3     1  UNL1        0.0686
     38 N         137.9754  140.1179  164.4556 N.3     1  UNL1       -0.2972
     39 H         138.5083  140.9758  164.3125 H       1  UNL1        0.1233
@<TRIPOS>BOND
     1    21    22    1
     2    22    23   ar
     3    23    24   ar
     4    24    25    1
     5    24    26   ar
     6    26    27   ar
     7    27     1    1
     8     1     2    1
     9     2     3    2
    10     3     4    1
    11     4     5   ar
    12     5     6   ar
    13     6     7    1
    14     6     8   ar
    15     8    12    1
    16    12    13   ar
    17    13    14   ar
    18    14    15    1
    19    14    16   ar
    20    16    17   ar
    21    17    18    1
    22    17    19   ar
    23     8     9   ar
    24     9    10   ar
    25    10    11    1
    26    11    29    1
    27    29    30    2
    28    29    31   am
    29    31    32    1
    30    31    33    1
    31    34    33    1
    32    34    35    1
    33    35    36    1
    34    36    37    1
    35    37    38    1
    36    27    28   ar
    37    28    22   ar
    38    11     1    1
    39    38    34    1
    40    10     4   ar
    41    19    12   ar
    42    15    20    1
    43    38    39    1
@<TRIPOS>MOLECULE
*****
 39 43 0 0 0
SMALL
GASTEIGER

@<TRIPOS>ATOM
      1 N         141.9844  142.0884  161.9619 N.pl3   1  UNL1       -0.2598
      2 C         143.0254  143.0142  161.4057 C.2     1  UNL1        0.1681
      3 N         143.6791  142.7047  160.0917 N.2     1  UNL1       -0.2278
      4 C         143.2920  141.4695  159.3338 C.ar    1  UNL1        0.0806
      5 C         143.9458  141.1601  158.0197 C.ar    1  UNL1        0.0146
      6 C         143.5587  139.9249  157.2618 C.ar    1  UNL1       -0.0204
      7 C         144.2125  139.6154  155.9478 C.3     1  UNL1        0.0311
      8 C         142.5177  138.9991  157.8181 C.ar    1  UNL1       -0.0039
      9 C         141.8639  139.3085  159.1321 C.ar    1  UNL1       -0.0010
     10 C         142.2511  140.5437  159.8900 C.ar    1  UNL1        0.0225
     11 C         141.5973  140.8532  161.2040 C.3     1  UNL1        0.1793
     12 C         142.1306  137.7639  157.0602 C.ar    1  UNL1        0.0049
     13 C         142.9028  136.4924  157.2535 C.ar    1  UNL1        0.0368
     14 C         142.5157  135.2572  156.4957 C.ar    1  UNL1        0.1359
     15 O         143.2878  133.9859  156.6890 O.3     1  UNL1       -0.5054
     16 C         141.3563  135.2934  155.5445 C.ar    1  UNL1        0.0662
     17 C         140.5842  136.5648  155.3512 C.ar    1  UNL1        0.1432
     18 F         139.4249  136.6009  154.4000 F       1  UNL1       -0.2041
     19 C         140.9713  137.8000  156.1090 C.ar    1  UNL1        0.0298
     20 H         144.0120  133.9633  157.2831 H       1  UNL1        0.2922
     21 C         138.0222  144.1035  164.6527 C.3     1  UNL1        0.0311
     22 C         139.3495  143.4054  164.6214 C.ar    1  UNL1       -0.0198
     23 C         140.0229  143.0166  165.9042 C.ar    1  UNL1        0.0072
     24 C         141.3502  142.3185  165.8728 C.ar    1  UNL1        0.0586
     25 CL        142.0236  141.9297  167.1555 Cl      1  UNL1       -0.0822
     26 C         142.0040  142.0091  164.5587 C.ar    1  UNL1        0.0263
     27 C         141.3306  142.3978  163.2760 C.ar    1  UNL1        0.0540
     28 C         140.0033  143.0959  163.3074 C.ar    1  UNL1        0.0107
     29 C         140.5563  139.9274  161.7603 C.2     1  UNL1        0.2485
     30 O         139.1099  140.1352  161.4218 O.2     1  UNL1       -0.2727
     31 N         140.9619  138.7938  162.6550 N.am    1  UNL1       -0.2748
     32 C         142.4084  138.5860  162.9935 C.3     1  UNL1        0.1150
     33 C         139.9210  137.8680  163.2112 C.3     1  UNL1        0.1091
     34 C         139.1771  138.2394  164.4597 C.3     1  UNL1        0.0741
     35 C         138.9055  139.6333  164.9426 C.3     1  UNL1        0.0189
     36 C         138.1347  139.5374  166.2258 C.3     1  UNL1        0.0185
     37 C         137.9298  138.0842  166.5360 C.3     1  UNL1        0.0686
     38 N         138.5740  137.2820  165.4445 N.3     1  UNL1       -0.2972
     39 H         137.8736  136.7036  164.9805 H       1  UNL1        0.1233
@<TRIPOS>BOND
     1    21    22    1
     2    22    23   ar
     3    23    24   ar
     4    24    25    1
     5    24    26   ar
     6    26    27   ar
     7    27     1    1
     8     1     2    1
     9     2     3    2
    10     3     4    1
    11     4     5   ar
    12     5     6   ar
    13     6     7    1
    14     6     8   ar
    15     8    12    1
    16    12    13   ar
    17    13    14   ar
    18    14    15    1
    19    14    16   ar
    20    16    17   ar
    21    17    18    1
    22    17    19   ar
    23     8     9   ar
    24     9    10   ar
    25    10    11    1
    26    11    29    1
    27    29    30    2
    28    29    31   am
    29    31    32    1
    30    31    33    1
    31    34    33    1
    32    34    35    1
    33    35    36    1
    34    36    37    1
    35    37    38    1
    36    27    28   ar
    37    28    22   ar
    38    11     1    1
    39    38    34    1
    40    10     4   ar
    41    19    12   ar
    42    15    20    1
    43    38    39    1
