@<TRIPOS>MOLECULE
*****
 33 36 0 0 0
SMALL
GASTEIGER

@<TRIPOS>ATOM
      1 C         138.6520  142.9822  164.3799 C.ar    1  UNL1        0.1345
      2 C         138.2901  141.5484  164.6318 C.ar    1  UNL1        0.0487
      3 C         138.9499  140.7932  165.7473 C.ar    1  UNL1        0.0490
      4 C         139.9716  141.4717  166.6109 C.ar    1  UNL1        0.0324
      5 C         140.3335  142.9054  166.3590 C.ar    1  UNL1        0.1015
      6 N         139.6737  143.6607  165.2435 N.ar    1  UNL1       -0.2290
      7 C         140.6314  140.7164  167.7263 C.ar    1  UNL1        0.0049
      8 C         141.9818  140.0977  167.5173 C.ar    1  UNL1        0.0002
      9 C         142.6415  139.3424  168.6327 C.ar    1  UNL1        0.0023
     10 C         141.9509  139.2059  169.9573 C.ar    1  UNL1        0.0296
     11 C         140.6006  139.8246  170.1664 C.ar    1  UNL1        0.1401
     12 F         139.9100  139.6881  171.4909 F       1  UNL1       -0.2042
     13 C         139.9408  140.5798  169.0509 C.ar    1  UNL1        0.0297
     14 N         137.9922  143.7374  163.2645 N.pl3   1  UNL1       -0.2821
     15 H         137.0300  143.9407  163.3094 H       1  UNL1        0.1551
     16 C         140.4110  145.0740  159.7130 C.ar    1  UNL1        0.1683
     17 C         139.6898  143.7593  159.6773 C.ar    1  UNL1        0.1299
     18 N         138.8835  143.3138  160.8611 N.ar    1  UNL1       -0.2251
     19 C         138.7985  144.1830  162.0807 C.ar    1  UNL1        0.1527
     20 C         139.5197  145.4977  162.1163 C.ar    1  UNL1        0.1340
     21 N         140.3260  145.9432  160.9325 N.ar    1  UNL1       -0.2290
     22 N         142.0235  145.9651  157.3453 N.1     1  UNL1       -0.1892
     23 C         141.2172  145.5196  158.5292 C.1     1  UNL1        0.1214
     24 N         138.5880  139.3594  165.9992 N.pl3   1  UNL1       -0.3306
     25 H         137.8517  139.1383  166.6141 H       1  UNL1        0.1469
     26 C         139.3480  138.2626  165.3141 C.3     1  UNL1        0.1184
     27 C         139.4001  138.2086  163.8160 C.3     1  UNL1        0.1503
     28 C         140.6597  137.7785  163.1243 C.3     1  UNL1        0.1003
     29 N         140.7117  137.7246  161.6263 N.3     1  UNL1       -0.2933
     30 C         139.5042  138.1008  160.8198 C.3     1  UNL1        0.1011
     31 C         138.2446  138.5309  161.5115 C.3     1  UNL1        0.1592
     32 O         138.1926  138.5848  163.0096 O.3     1  UNL1       -0.3516
     33 H         140.9468  136.7646  161.3742 H       1  UNL1        0.1234
@<TRIPOS>BOND
     1    22    23    3
     2    23    16    1
     3    16    17   ar
     4    17    18   ar
     5    18    19   ar
     6    19    14    1
     7    14     1    1
     8     1     2   ar
     9     2     3   ar
    10     3    24    1
    11    24    26    1
    12    27    26    1
    13    27    28    1
    14    28    29    1
    15    29    30    1
    16    30    31    1
    17    31    32    1
    18     3     4   ar
    19     4     7    1
    20     7     8   ar
    21     8     9   ar
    22     9    10   ar
    23    10    11   ar
    24    11    12    1
    25    11    13   ar
    26     4     5   ar
    27     5     6   ar
    28    19    20   ar
    29    20    21   ar
    30    21    16   ar
    31     6     1   ar
    32    32    27    1
    33    13     7   ar
    34    14    15    1
    35    24    25    1
    36    29    33    1
@<TRIPOS>MOLECULE
*****
 33 36 0 0 0
SMALL
GASTEIGER

@<TRIPOS>ATOM
      1 C         139.3566  138.3337  164.7924 C.ar    1  UNL1        0.1345
      2 C         140.7497  138.8586  164.9765 C.ar    1  UNL1        0.0487
      3 C         141.1035  139.6291  166.2138 C.ar    1  UNL1        0.0490
      4 C         140.0642  139.8748  167.2672 C.ar    1  UNL1        0.0324
      5 C         138.6711  139.3500  167.0831 C.ar    1  UNL1        0.1015
      6 N         138.3173  138.5794  165.8457 N.ar    1  UNL1       -0.2290
      7 C         140.4180  140.6453  168.5046 C.ar    1  UNL1        0.0049
      8 C         140.9142  139.9228  169.7218 C.ar    1  UNL1        0.0002
      9 C         141.2680  140.6933  170.9591 C.ar    1  UNL1        0.0023
     10 C         141.1256  142.1864  170.9793 C.ar    1  UNL1        0.0296
     11 C         140.6294  142.9089  169.7620 C.ar    1  UNL1        0.1401
     12 F         140.4870  144.4020  169.7822 F       1  UNL1       -0.2042
     13 C         140.2756  142.1384  168.5247 C.ar    1  UNL1        0.0297
     14 N         139.0028  137.5632  163.5550 N.pl3   1  UNL1       -0.2821
     15 H         138.8802  136.5875  163.6009 H       1  UNL1        0.1551
     16 C         138.5019  139.7117  159.6328 C.ar    1  UNL1        0.1683
     17 C         139.4677  138.5694  159.7443 C.ar    1  UNL1        0.1299
     18 N         139.6347  137.8533  161.0517 N.ar    1  UNL1       -0.2251
     19 C         138.8359  138.2794  162.2476 C.ar    1  UNL1        0.1527
     20 C         137.8701  139.4217  162.1362 C.ar    1  UNL1        0.1340
     21 N         137.7032  140.1378  160.8288 N.ar    1  UNL1       -0.2290
     22 N         138.1680  141.1440  157.0181 N.1     1  UNL1       -0.1892
     23 C         138.3350  140.4279  158.3255 C.1     1  UNL1        0.1214
     24 N         142.4966  140.1539  166.3980 N.pl3   1  UNL1       -0.3306
     25 H         142.7124  140.7145  167.1780 H       1  UNL1        0.1469
     26 C         143.5610  139.8246  165.3936 C.3     1  UNL1        0.1184
     27 C         143.9742  140.8465  164.3763 C.3     1  UNL1        0.1503
     28 C         145.3742  140.8454  163.8380 C.3     1  UNL1        0.1003
     29 N         145.7875  141.8673  162.8207 N.3     1  UNL1       -0.2933
     30 C         144.8006  142.8905  162.3418 C.3     1  UNL1        0.1011
     31 C         143.4006  142.8917  162.8801 C.3     1  UNL1        0.1592
     32 O         142.9874  141.8696  163.8974 O.3     1  UNL1       -0.3516
     33 H         146.1015  141.3532  161.9976 H       1  UNL1        0.1234
@<TRIPOS>BOND
     1    22    23    3
     2    23    16    1
     3    16    17   ar
     4    17    18   ar
     5    18    19   ar
     6    19    14    1
     7    14     1    1
     8     1     2   ar
     9     2     3   ar
    10     3    24    1
    11    24    26    1
    12    27    26    1
    13    27    28    1
    14    28    29    1
    15    29    30    1
    16    30    31    1
    17    31    32    1
    18     3     4   ar
    19     4     7    1
    20     7     8   ar
    21     8     9   ar
    22     9    10   ar
    23    10    11   ar
    24    11    12    1
    25    11    13   ar
    26     4     5   ar
    27     5     6   ar
    28    19    20   ar
    29    20    21   ar
    30    21    16   ar
    31     6     1   ar
    32    32    27    1
    33    13     7   ar
    34    14    15    1
    35    24    25    1
    36    29    33    1
@<TRIPOS>MOLECULE
*****
 33 36 0 0 0
SMALL
GASTEIGER

@<TRIPOS>ATOM
      1 C         141.7800  138.3590  164.1040 C.ar    1  UNL1        0.1345
      2 C         140.4182  138.9859  164.1539 C.ar    1  UNL1        0.0487
      3 C         139.9752  139.7203  165.3845 C.ar    1  UNL1        0.0490
      4 C         140.8940  139.8279  166.5652 C.ar    1  UNL1        0.0324
      5 C         142.2558  139.2011  166.5154 C.ar    1  UNL1        0.1015
      6 N         142.6989  138.4666  165.2848 N.ar    1  UNL1       -0.2290
      7 C         140.4509  140.5623  167.7959 C.ar    1  UNL1        0.0049
      8 C         139.5222  139.9009  168.7705 C.ar    1  UNL1        0.0002
      9 C         139.0792  140.6353  170.0010 C.ar    1  UNL1        0.0023
     10 C         139.5649  142.0313  170.2569 C.ar    1  UNL1        0.0296
     11 C         140.4937  142.6927  169.2823 C.ar    1  UNL1        0.1401
     12 F         140.9794  144.0886  169.5382 F       1  UNL1       -0.2042
     13 C         140.9367  141.9583  168.0518 C.ar    1  UNL1        0.0297
     14 N         142.2230  137.6246  162.8735 N.pl3   1  UNL1       -0.2821
     15 H         142.1786  136.6415  162.8442 H       1  UNL1        0.1551
     16 C         143.7549  139.9147  159.3156 C.ar    1  UNL1        0.1683
     17 C         143.6604  140.5843  160.6544 C.ar    1  UNL1        0.1299
     18 N         143.1498  139.8209  161.8404 N.ar    1  UNL1       -0.2251
     19 C         142.7336  138.3880  161.6875 C.ar    1  UNL1        0.1527
     20 C         142.8282  137.7184  160.3486 C.ar    1  UNL1        0.1340
     21 N         143.3388  138.4818  159.1626 N.ar    1  UNL1       -0.2290
     22 N         144.7762  141.4415  156.9436 N.1     1  UNL1       -0.1892
     23 C         144.2656  140.6781  158.1296 C.1     1  UNL1        0.1214
     24 N         138.6133  140.3472  165.4343 N.pl3   1  UNL1       -0.3306
     25 H         138.0903  140.3227  166.2681 H       1  UNL1        0.1469
     26 C         138.0483  141.0113  164.2138 C.3     1  UNL1        0.1184
     27 C         138.4856  142.3977  163.8440 C.3     1  UNL1        0.1503
     28 C         137.7378  143.1650  162.7942 C.3     1  UNL1        0.1003
     29 N         138.1752  144.5513  162.4244 N.3     1  UNL1       -0.2933
     30 C         139.3603  145.1704  163.1044 C.3     1  UNL1        0.1011
     31 C         140.1081  144.4030  164.1542 C.3     1  UNL1        0.1592
     32 O         139.6707  143.0166  164.5240 O.3     1  UNL1       -0.3516
     33 H         137.3809  145.1670  162.5988 H       1  UNL1        0.1234
@<TRIPOS>BOND
     1    22    23    3
     2    23    16    1
     3    16    17   ar
     4    17    18   ar
     5    18    19   ar
     6    19    14    1
     7    14     1    1
     8     1     2   ar
     9     2     3   ar
    10     3    24    1
    11    24    26    1
    12    27    26    1
    13    27    28    1
    14    28    29    1
    15    29    30    1
    16    30    31    1
    17    31    32    1
    18     3     4   ar
    19     4     7    1
    20     7     8   ar
    21     8     9   ar
    22     9    10   ar
    23    10    11   ar
    24    11    12    1
    25    11    13   ar
    26     4     5   ar
    27     5     6   ar
    28    19    20   ar
    29    20    21   ar
    30    21    16   ar
    31     6     1   ar
    32    32    27    1
    33    13     7   ar
    34    14    15    1
    35    24    25    1
    36    29    33    1
@<TRIPOS>MOLECULE
*****
 33 36 0 0 0
SMALL
GASTEIGER

@<TRIPOS>ATOM
      1 C         144.1306  139.8751  164.3467 C.ar    1  UNL1        0.1345
      2 C         143.4507  141.1653  164.6980 C.ar    1  UNL1        0.0487
      3 C         142.7041  141.2913  165.9928 C.ar    1  UNL1        0.0490
      4 C         142.6372  140.1271  166.9364 C.ar    1  UNL1        0.0324
      5 C         143.3170  138.8370  166.5851 C.ar    1  UNL1        0.1015
      6 N         144.0637  138.7109  165.2902 N.ar    1  UNL1       -0.2290
      7 C         141.8905  140.2531  168.2312 C.ar    1  UNL1        0.0049
      8 C         142.6320  140.5648  169.4973 C.ar    1  UNL1        0.0002
      9 C         141.8853  140.6908  170.7921 C.ar    1  UNL1        0.0023
     10 C         140.3971  140.5052  170.8208 C.ar    1  UNL1        0.0296
     11 C         139.6556  140.1935  169.5547 C.ar    1  UNL1        0.1401
     12 F         138.1674  140.0079  169.5834 F       1  UNL1       -0.2042
     13 C         140.4023  140.0675  168.2599 C.ar    1  UNL1        0.0297
     14 N         144.8772  139.7491  163.0519 N.pl3   1  UNL1       -0.2821
     15 H         145.8404  139.9502  163.0174 H       1  UNL1        0.1551
     16 C         142.7150  138.4518  159.3247 C.ar    1  UNL1        0.1683
     17 C         143.2910  139.8338  159.4150 C.ar    1  UNL1        0.1299
     18 N         144.0118  140.2663  160.6574 N.ar    1  UNL1       -0.2251
     19 C         144.1565  139.3167  161.8095 C.ar    1  UNL1        0.1527
     20 C         143.5805  137.9347  161.7191 C.ar    1  UNL1        0.1340
     21 N         142.8597  137.5023  160.4767 N.ar    1  UNL1       -0.2290
     22 N         141.2735  137.5870  156.8399 N.1     1  UNL1       -0.1892
     23 C         141.9943  138.0194  158.0823 C.1     1  UNL1        0.1214
     24 N         142.0243  142.5814  166.3441 N.pl3   1  UNL1       -0.3306
     25 H         142.4631  143.2194  166.9521 H       1  UNL1        0.1469
     26 C         140.6759  142.8995  165.7690 C.3     1  UNL1        0.1184
     27 C         140.5588  143.8442  164.6098 C.3     1  UNL1        0.1503
     28 C         141.7743  144.5606  164.1004 C.3     1  UNL1        0.1003
     29 N         141.6572  145.5053  162.9412 N.3     1  UNL1       -0.2933
     30 C         140.3246  145.7336  162.2914 C.3     1  UNL1        0.1011
     31 C         139.1092  145.0173  162.8008 C.3     1  UNL1        0.1592
     32 O         139.2263  144.0725  163.9601 O.3     1  UNL1       -0.3516
     33 H         142.2836  145.1588  162.2146 H       1  UNL1        0.1234
@<TRIPOS>BOND
     1    22    23    3
     2    23    16    1
     3    16    17   ar
     4    17    18   ar
     5    18    19   ar
     6    19    14    1
     7    14     1    1
     8     1     2   ar
     9     2     3   ar
    10     3    24    1
    11    24    26    1
    12    27    26    1
    13    27    28    1
    14    28    29    1
    15    29    30    1
    16    30    31    1
    17    31    32    1
    18     3     4   ar
    19     4     7    1
    20     7     8   ar
    21     8     9   ar
    22     9    10   ar
    23    10    11   ar
    24    11    12    1
    25    11    13   ar
    26     4     5   ar
    27     5     6   ar
    28    19    20   ar
    29    20    21   ar
    30    21    16   ar
    31     6     1   ar
    32    32    27    1
    33    13     7   ar
    34    14    15    1
    35    24    25    1
    36    29    33    1
@<TRIPOS>MOLECULE
*****
 33 36 0 0 0
SMALL
GASTEIGER

@<TRIPOS>ATOM
      1 C         139.1713  139.2013  165.1207 C.ar    1  UNL1        0.1345
      2 C         140.1758  140.2441  164.7288 C.ar    1  UNL1        0.0487
      3 C         140.8191  141.0986  165.7804 C.ar    1  UNL1        0.0490
      4 C         140.4579  140.9104  167.2240 C.ar    1  UNL1        0.0324
      5 C         139.4534  139.8677  167.6160 C.ar    1  UNL1        0.1015
      6 N         138.8101  139.0131  166.5644 N.ar    1  UNL1       -0.2290
      7 C         141.1012  141.7650  168.2757 C.ar    1  UNL1        0.0049
      8 C         140.3099  142.8451  168.9518 C.ar    1  UNL1        0.0002
      9 C         140.9533  143.6996  170.0034 C.ar    1  UNL1        0.0023
     10 C         142.3879  143.4740  170.3789 C.ar    1  UNL1        0.0296
     11 C         143.1791  142.3938  169.7028 C.ar    1  UNL1        0.1401
     12 F         144.6137  142.1682  170.0783 F       1  UNL1       -0.2042
     13 C         142.5358  141.5393  168.6512 C.ar    1  UNL1        0.0297
     14 N         138.5280  138.3468  164.0691 N.pl3   1  UNL1       -0.2821
     15 H         138.0466  137.5277  164.3270 H       1  UNL1        0.1551
     16 C         138.7987  139.5272  159.7351 C.ar    1  UNL1        0.1683
     17 C         137.8417  140.2360  160.6471 C.ar    1  UNL1        0.1299
     18 N         137.7515  139.8425  162.0918 N.ar    1  UNL1       -0.2251
     19 C         138.6182  138.7403  162.6244 C.ar    1  UNL1        0.1527
     20 C         139.5752  138.0315  161.7124 C.ar    1  UNL1        0.1340
     21 N         139.6655  138.4250  160.2678 N.ar    1  UNL1       -0.2290
     22 N         138.9792  140.3142  156.8458 N.1     1  UNL1       -0.1892
     23 C         138.8889  139.9207  158.2905 C.1     1  UNL1        0.1214
     24 N         141.8236  142.1414  165.3884 N.pl3   1  UNL1       -0.3306
     25 H         142.3342  142.6184  166.0820 H       1  UNL1        0.1469
     26 C         142.0502  142.4574  163.9397 C.3     1  UNL1        0.1184
     27 C         141.3162  143.5967  163.2968 C.3     1  UNL1        0.1503
     28 C         141.7220  145.0108  163.5894 C.3     1  UNL1        0.1003
     29 N         140.9880  146.1500  162.9465 N.3     1  UNL1       -0.2933
     30 C         139.8481  145.8752  162.0111 C.3     1  UNL1        0.1011
     31 C         139.4422  144.4611  161.7185 C.3     1  UNL1        0.1592
     32 O         140.1763  143.3218  162.3614 O.3     1  UNL1       -0.3516
     33 H         141.6784  146.6854  162.4201 H       1  UNL1        0.1234
@<TRIPOS>BOND
     1    22    23    3
     2    23    16    1
     3    16    17   ar
     4    17    18   ar
     5    18    19   ar
     6    19    14    1
     7    14     1    1
     8     1     2   ar
     9     2     3   ar
    10     3    24    1
    11    24    26    1
    12    27    26    1
    13    27    28    1
    14    28    29    1
    15    29    30    1
    16    30    31    1
    17    31    32    1
    18     3     4   ar
    19     4     7    1
    20     7     8   ar
    21     8     9   ar
    22     9    10   ar
    23    10    11   ar
    24    11    12    1
    25    11    13   ar
    26     4     5   ar
    27     5     6   ar
    28    19    20   ar
    29    20    21   ar
    30    21    16   ar
    31     6     1   ar
    32    32    27    1
    33    13     7   ar
    34    14    15    1
    35    24    25    1
    36    29    33    1
@<TRIPOS>MOLECULE
*****
 33 36 0 0 0
SMALL
GASTEIGER

@<TRIPOS>ATOM
      1 C         143.1550  139.2557  164.4104 C.ar    1  UNL1        0.1345
      2 C         141.9414  140.1129  164.2035 C.ar    1  UNL1        0.0487
      3 C         141.2212  140.6909  165.3855 C.ar    1  UNL1        0.0490
      4 C         141.7143  140.4118  166.7743 C.ar    1  UNL1        0.0324
      5 C         142.9278  139.5548  166.9812 C.ar    1  UNL1        0.1015
      6 N         143.6481  138.9767  165.7993 N.ar    1  UNL1       -0.2290
      7 C         140.9940  140.9899  167.9563 C.ar    1  UNL1        0.0049
      8 C         140.0056  140.1544  168.7144 C.ar    1  UNL1        0.0002
      9 C         139.2853  140.7325  169.8963 C.ar    1  UNL1        0.0023
     10 C         139.5534  142.1461  170.3201 C.ar    1  UNL1        0.0296
     11 C         140.5418  142.9817  169.5620 C.ar    1  UNL1        0.1401
     12 F         140.8099  144.3954  169.9858 F       1  UNL1       -0.2042
     13 C         141.2621  142.4036  168.3801 C.ar    1  UNL1        0.0297
     14 N         143.8753  138.6777  163.2285 N.pl3   1  UNL1       -0.2821
     15 H         144.3132  137.7989  163.3004 H       1  UNL1        0.1551
     16 C         144.0344  140.9603  159.3536 C.ar    1  UNL1        0.1683
     17 C         144.2465  141.6757  160.6548 C.ar    1  UNL1        0.1299
     18 N         144.1935  140.9148  161.9464 N.ar    1  UNL1       -0.2251
     19 C         143.9283  139.4385  161.9369 C.ar    1  UNL1        0.1527
     20 C         143.7161  138.7231  160.6357 C.ar    1  UNL1        0.1340
     21 N         143.7691  139.4840  159.3441 N.ar    1  UNL1       -0.2290
     22 N         144.1404  142.4820  156.7704 N.1     1  UNL1       -0.1892
     23 C         144.0874  141.7211  158.0620 C.1     1  UNL1        0.1214
     24 N         140.0076  141.5481  165.1786 N.pl3   1  UNL1       -0.3306
     25 H         140.0989  142.5271  165.1306 H       1  UNL1        0.1469
     26 C         138.6551  140.9134  165.0448 C.3     1  UNL1        0.1184
     27 C         138.2570  140.2612  163.7541 C.3     1  UNL1        0.1503
     28 C         137.5279  141.0513  162.7081 C.3     1  UNL1        0.1003
     29 N         137.1298  140.3990  161.4173 N.3     1  UNL1       -0.2933
     30 C         137.4609  138.9566  161.1725 C.3     1  UNL1        0.1011
     31 C         138.1901  138.1665  162.2185 C.3     1  UNL1        0.1592
     32 O         138.5881  138.8188  163.5093 O.3     1  UNL1       -0.3516
     33 H         137.5711  140.9335  160.6690 H       1  UNL1        0.1234
@<TRIPOS>BOND
     1    22    23    3
     2    23    16    1
     3    16    17   ar
     4    17    18   ar
     5    18    19   ar
     6    19    14    1
     7    14     1    1
     8     1     2   ar
     9     2     3   ar
    10     3    24    1
    11    24    26    1
    12    27    26    1
    13    27    28    1
    14    28    29    1
    15    29    30    1
    16    30    31    1
    17    31    32    1
    18     3     4   ar
    19     4     7    1
    20     7     8   ar
    21     8     9   ar
    22     9    10   ar
    23    10    11   ar
    24    11    12    1
    25    11    13   ar
    26     4     5   ar
    27     5     6   ar
    28    19    20   ar
    29    20    21   ar
    30    21    16   ar
    31     6     1   ar
    32    32    27    1
    33    13     7   ar
    34    14    15    1
    35    24    25    1
    36    29    33    1
@<TRIPOS>MOLECULE
*****
 33 36 0 0 0
SMALL
GASTEIGER

@<TRIPOS>ATOM
      1 C         139.2610  138.9882  164.6417 C.ar    1  UNL1        0.1345
      2 C         140.3807  139.9338  164.3218 C.ar    1  UNL1        0.0487
      3 C         141.0186  140.7382  165.4154 C.ar    1  UNL1        0.0490
      4 C         140.5367  140.5973  166.8289 C.ar    1  UNL1        0.0324
      5 C         139.4171  139.6518  167.1488 C.ar    1  UNL1        0.1015
      6 N         138.7792  138.8472  166.0552 N.ar    1  UNL1       -0.2290
      7 C         141.1746  141.4018  167.9225 C.ar    1  UNL1        0.0049
      8 C         142.5041  140.9879  168.4802 C.ar    1  UNL1        0.0002
      9 C         143.1419  141.7924  169.5738 C.ar    1  UNL1        0.0023
     10 C         142.4503  143.0109  170.1095 C.ar    1  UNL1        0.0296
     11 C         141.1208  143.4248  169.5518 C.ar    1  UNL1        0.1401
     12 F         140.4292  144.6432  170.0876 F       1  UNL1       -0.2042
     13 C         140.4830  142.6202  168.4583 C.ar    1  UNL1        0.0297
     14 N         138.6232  138.1838  163.5482 N.pl3   1  UNL1       -0.2821
     15 H         138.1689  137.3367  163.7611 H       1  UNL1        0.1551
     16 C         138.7859  139.6421  159.2942 C.ar    1  UNL1        0.1683
     17 C         139.7315  138.5739  159.7575 C.ar    1  UNL1        0.1299
     18 N         139.6772  138.0877  161.1755 N.ar    1  UNL1       -0.2251
     19 C         138.6774  138.6699  162.1302 C.ar    1  UNL1        0.1527
     20 C         137.7319  139.7381  161.6668 C.ar    1  UNL1        0.1340
     21 N         137.7861  140.2242  160.2488 N.ar    1  UNL1       -0.2290
     22 N         138.8944  140.6144  156.4581 N.1     1  UNL1       -0.1892
     23 C         138.8402  140.1282  157.8761 C.1     1  UNL1        0.1214
     24 N         142.1383  141.6838  165.0955 N.pl3   1  UNL1       -0.3306
     25 H         143.0727  141.3816  165.1649 H       1  UNL1        0.1469
     26 C         141.8343  143.0896  164.6699 C.3     1  UNL1        0.1184
     27 C         140.4616  143.4448  164.1803 C.3     1  UNL1        0.1503
     28 C         139.4941  144.1347  165.0956 C.3     1  UNL1        0.1003
     29 N         138.1215  144.4899  164.6060 N.3     1  UNL1       -0.2933
     30 C         137.7164  144.1551  163.2010 C.3     1  UNL1        0.1011
     31 C         138.6839  143.4651  162.2857 C.3     1  UNL1        0.1592
     32 O         140.0566  143.1100  162.7754 O.3     1  UNL1       -0.3516
     33 H         138.0249  145.5002  164.7074 H       1  UNL1        0.1234
@<TRIPOS>BOND
     1    22    23    3
     2    23    16    1
     3    16    17   ar
     4    17    18   ar
     5    18    19   ar
     6    19    14    1
     7    14     1    1
     8     1     2   ar
     9     2     3   ar
    10     3    24    1
    11    24    26    1
    12    27    26    1
    13    27    28    1
    14    28    29    1
    15    29    30    1
    16    30    31    1
    17    31    32    1
    18     3     4   ar
    19     4     7    1
    20     7     8   ar
    21     8     9   ar
    22     9    10   ar
    23    10    11   ar
    24    11    12    1
    25    11    13   ar
    26     4     5   ar
    27     5     6   ar
    28    19    20   ar
    29    20    21   ar
    30    21    16   ar
    31     6     1   ar
    32    32    27    1
    33    13     7   ar
    34    14    15    1
    35    24    25    1
    36    29    33    1
@<TRIPOS>MOLECULE
*****
 33 36 0 0 0
SMALL
GASTEIGER

@<TRIPOS>ATOM
      1 C         141.0874  144.7403  163.4991 C.ar    1  UNL1        0.1345
      2 C         142.1566  143.8503  164.0601 C.ar    1  UNL1        0.0487
      3 C         141.8763  143.0143  165.2736 C.ar    1  UNL1        0.0490
      4 C         140.5267  143.0682  165.9261 C.ar    1  UNL1        0.0324
      5 C         139.4575  143.9581  165.3651 C.ar    1  UNL1        0.1015
      6 N         139.7378  144.7942  164.1516 N.ar    1  UNL1       -0.2290
      7 C         140.2465  142.2321  167.1396 C.ar    1  UNL1        0.0049
      8 C         139.7675  140.8194  166.9827 C.ar    1  UNL1        0.0002
      9 C         139.4872  139.9834  168.1961 C.ar    1  UNL1        0.0023
     10 C         139.6859  140.5601  169.5665 C.ar    1  UNL1        0.0296
     11 C         140.1649  141.9729  169.7234 C.ar    1  UNL1        0.1401
     12 F         140.3636  142.5497  171.0937 F       1  UNL1       -0.2042
     13 C         140.4452  142.8089  168.5099 C.ar    1  UNL1        0.0297
     14 N         141.3677  145.5763  162.2857 N.pl3   1  UNL1       -0.2821
     15 H         141.5528  146.5384  162.3828 H       1  UNL1        0.1551
     16 C         141.3626  143.6870  158.2015 C.ar    1  UNL1        0.1683
     17 C         142.5649  143.5531  159.0883 C.ar    1  UNL1        0.1299
     18 N         142.5666  144.1829  160.4497 N.ar    1  UNL1       -0.2251
     19 C         141.3660  144.9465  160.9243 C.ar    1  UNL1        0.1527
     20 C         140.1637  145.0804  160.0375 C.ar    1  UNL1        0.1340
     21 N         140.1620  144.4507  158.6761 N.ar    1  UNL1       -0.2290
     22 N         141.3593  142.4275  155.4787 N.1     1  UNL1       -0.1892
     23 C         141.3610  143.0573  156.8401 C.1     1  UNL1        0.1214
     24 N         142.9456  142.1243  165.8345 N.pl3   1  UNL1       -0.3306
     25 H         142.9056  141.8402  166.7763 H       1  UNL1        0.1469
     26 C         144.0757  141.6671  164.9606 C.3     1  UNL1        0.1184
     27 C         143.8728  140.5270  164.0072 C.3     1  UNL1        0.1503
     28 C         144.7042  140.4333  162.7622 C.3     1  UNL1        0.1003
     29 N         144.5012  139.2932  161.8089 N.3     1  UNL1       -0.2933
     30 C         143.4668  138.2468  162.1005 C.3     1  UNL1        0.1011
     31 C         142.6354  138.3405  163.3454 C.3     1  UNL1        0.1592
     32 O         142.8384  139.4807  164.2988 O.3     1  UNL1       -0.3516
     33 H         145.3961  138.8097  161.7334 H       1  UNL1        0.1234
@<TRIPOS>BOND
     1    22    23    3
     2    23    16    1
     3    16    17   ar
     4    17    18   ar
     5    18    19   ar
     6    19    14    1
     7    14     1    1
     8     1     2   ar
     9     2     3   ar
    10     3    24    1
    11    24    26    1
    12    27    26    1
    13    27    28    1
    14    28    29    1
    15    29    30    1
    16    30    31    1
    17    31    32    1
    18     3     4   ar
    19     4     7    1
    20     7     8   ar
    21     8     9   ar
    22     9    10   ar
    23    10    11   ar
    24    11    12    1
    25    11    13   ar
    26     4     5   ar
    27     5     6   ar
    28    19    20   ar
    29    20    21   ar
    30    21    16   ar
    31     6     1   ar
    32    32    27    1
    33    13     7   ar
    34    14    15    1
    35    24    25    1
    36    29    33    1
@<TRIPOS>MOLECULE
*****
 33 36 0 0 0
SMALL
GASTEIGER

@<TRIPOS>ATOM
      1 C         142.8526  138.5073  165.3862 C.ar    1  UNL1        0.1345
      2 C         143.6012  139.3857  164.4280 C.ar    1  UNL1        0.0487
      3 C         143.3070  139.3146  162.9589 C.ar    1  UNL1        0.0490
      4 C         142.2643  138.3650  162.4479 C.ar    1  UNL1        0.0324
      5 C         141.5157  137.4867  163.4061 C.ar    1  UNL1        0.1015
      6 N         141.8099  137.5578  164.8753 N.ar    1  UNL1       -0.2290
      7 C         141.9701  138.2939  160.9787 C.ar    1  UNL1        0.0049
      8 C         142.9815  137.7076  160.0388 C.ar    1  UNL1        0.0002
      9 C         142.6873  137.6365  158.5697 C.ar    1  UNL1        0.0023
     10 C         141.3817  138.1517  158.0405 C.ar    1  UNL1        0.0296
     11 C         140.3704  138.7380  158.9803 C.ar    1  UNL1        0.1401
     12 F         139.0648  139.2532  158.4511 F       1  UNL1       -0.2042
     13 C         140.6646  138.8091  160.4494 C.ar    1  UNL1        0.0297
     14 N         143.1468  138.5785  166.8553 N.pl3   1  UNL1       -0.2821
     15 H         143.8451  138.0048  167.2459 H       1  UNL1        0.1551
     16 C         140.8376  141.4141  169.4777 C.ar    1  UNL1        0.1683
     17 C         142.1263  140.8217  169.9660 C.ar    1  UNL1        0.1299
     18 N         142.8960  139.8765  169.0919 N.ar    1  UNL1       -0.2251
     19 C         142.3771  139.5237  167.7295 C.ar    1  UNL1        0.1527
     20 C         141.0885  140.1161  167.2412 C.ar    1  UNL1        0.1340
     21 N         140.3188  141.0613  168.1153 N.ar    1  UNL1       -0.2290
     22 N         139.2982  143.3045  171.2260 N.1     1  UNL1       -0.1892
     23 C         140.0679  142.3593  170.3518 C.1     1  UNL1        0.1214
     24 N         144.0556  140.1930  162.0006 N.pl3   1  UNL1       -0.3306
     25 H         143.8971  140.1123  161.0323 H       1  UNL1        0.1469
     26 C         145.0455  141.1942  162.5178 C.3     1  UNL1        0.1184
     27 C         144.5796  142.5490  162.9623 C.3     1  UNL1        0.1503
     28 C         144.1263  143.5564  161.9476 C.3     1  UNL1        0.1003
     29 N         143.6603  144.9111  162.3920 N.3     1  UNL1       -0.2933
     30 C         143.6477  145.2585  163.8512 C.3     1  UNL1        0.1011
     31 C         144.1010  144.2510  164.8659 C.3     1  UNL1        0.1592
     32 O         144.5670  142.8963  164.4214 O.3     1  UNL1       -0.3516
     33 H         142.7034  145.0184  162.0555 H       1  UNL1        0.1234
@<TRIPOS>BOND
     1    22    23    3
     2    23    16    1
     3    16    17   ar
     4    17    18   ar
     5    18    19   ar
     6    19    14    1
     7    14     1    1
     8     1     2   ar
     9     2     3   ar
    10     3    24    1
    11    24    26    1
    12    27    26    1
    13    27    28    1
    14    28    29    1
    15    29    30    1
    16    30    31    1
    17    31    32    1
    18     3     4   ar
    19     4     7    1
    20     7     8   ar
    21     8     9   ar
    22     9    10   ar
    23    10    11   ar
    24    11    12    1
    25    11    13   ar
    26     4     5   ar
    27     5     6   ar
    28    19    20   ar
    29    20    21   ar
    30    21    16   ar
    31     6     1   ar
    32    32    27    1
    33    13     7   ar
    34    14    15    1
    35    24    25    1
    36    29    33    1
