@<TRIPOS>MOLECULE
*****
 39 43 0 0 0
SMALL
GASTEIGER

@<TRIPOS>ATOM
      1 C         142.3125  138.9378  155.1127 C.3     1  UNL1        0.0948
      2 C         141.7879  139.9202  156.1175 C.2     1  UNL1        0.2262
      3 O         141.0517  141.1432  155.6569 O.2     1  UNL1       -0.2749
      4 N         141.9995  139.6795  157.5829 N.am    1  UNL1       -0.2767
      5 C         142.7357  138.4565  158.0434 C.3     1  UNL1        0.1107
      6 C         142.9473  138.2158  159.5088 C.3     1  UNL1        0.0939
      7 N         142.4226  139.1982  160.5136 N.3     1  UNL1       -0.2695
      8 C         142.9699  138.3531  161.6255 C.3     1  UNL1        0.0726
      9 C         143.1814  138.1124  163.0909 C.3     1  UNL1        0.0236
     10 C         143.0007  138.5406  164.5171 C.3     1  UNL1        0.0452
     11 C         142.4760  139.5230  165.5219 C.ar    1  UNL1        0.0372
     12 C         142.9022  138.9006  166.8185 C.ar    1  UNL1       -0.0060
     13 C         143.6600  137.6153  166.9724 C.3     1  UNL1        0.0323
     14 C         142.4376  139.7893  167.9339 C.ar    1  UNL1        0.0438
     15 C         141.7243  140.9609  167.3269 C.ar    1  UNL1        0.0435
     16 N         141.7480  140.7962  165.8362 N.ar    1  UNL1       -0.3137
     17 C         141.0117  142.0193  165.3756 C.ar    1  UNL1        0.0646
     18 C         140.2849  143.2992  165.7918 C.ar    1  UNL1        0.0177
     19 C         139.6205  144.3698  164.9779 C.ar    1  UNL1        0.0072
     20 C         139.6045  144.2727  163.4811 C.ar    1  UNL1        0.0663
     21 C         140.2529  143.1051  162.7983 C.ar    1  UNL1        0.0505
     22 C         140.4645  142.8644  164.2636 C.ar    1  UNL1        0.0319
     23 N         140.4337  142.6769  161.3721 N.pl3   1  UNL1       -0.3314
     24 C         140.9584  141.6945  160.3673 C.3     1  UNL1        0.1050
     25 C         141.6864  140.4212  160.0531 C.3     1  UNL1        0.0972
     26 C         141.4748  140.6618  158.5877 C.3     1  UNL1        0.1110
     27 C         141.1453  142.0262  168.2100 C.3     1  UNL1        0.0446
     28 C         141.2796  141.9199  169.7001 C.3     1  UNL1        0.0128
     29 C         141.1506  142.2618  171.1550 C.3     1  UNL1        0.0008
     30 C         140.5215  143.2102  169.5983 C.3     1  UNL1        0.0008
     31 C         141.9929  140.7483  170.3072 C.3     1  UNL1        0.0695
     32 C         142.5719  139.6830  169.4242 C.2     1  UNL1        0.1739
     33 O         143.2852  138.5114  170.0313 O.2     1  UNL1       -0.2913
     34 H         139.9976  143.3795  160.8379 H       1  UNL1        0.1469
     35 C         138.9401  145.3432  162.6671 C.2     1  UNL1        0.2439
     36 N         139.7582  146.4541  162.0784 N.am    1  UNL1       -0.3253
     37 O         137.4577  145.3029  162.4418 O.2     1  UNL1       -0.2703
     38 H         140.7312  146.4806  162.2263 H       1  UNL1        0.1453
     39 H         139.3222  147.1567  161.5441 H       1  UNL1        0.1453
@<TRIPOS>BOND
     1     1     2    1
     2     2     3    2
     3     2     4   am
     4     4     5    1
     5     5     6    1
     6     6     7    1
     7     7     8    1
     8     8     9    1
     9     9    10    1
    10    10    11    1
    11    11    12   ar
    12    12    13    1
    13    12    14   ar
    14    14    15   ar
    15    15    16   ar
    16    16    17    1
    17    17    18   ar
    18    18    19   ar
    19    19    20   ar
    20    20    35    1
    21    35    36   am
    22    35    37    2
    23    20    21   ar
    24    21    22   ar
    25    21    23    1
    26    23    24    1
    27    25    24    1
    28    25    26    1
    29    15    27    1
    30    27    28    1
    31    28    29    1
    32    28    30    1
    33    28    31    1
    34    31    32    1
    35    32    33    2
    36    26     4    1
    37    25     7    1
    38    16    11   ar
    39    22    17   ar
    40    32    14    1
    41    36    38    1
    42    36    39    1
    43    23    34    1
@<TRIPOS>MOLECULE
*****
 39 43 0 0 0
SMALL
GASTEIGER

@<TRIPOS>ATOM
      1 C         140.8389  137.9579  155.0804 C.3     1  UNL1        0.0948
      2 C         141.3798  138.9258  156.0906 C.2     1  UNL1        0.2262
      3 O         142.3754  139.9672  155.6733 O.2     1  UNL1       -0.2749
      4 N         140.9252  138.8523  157.5182 N.am    1  UNL1       -0.2767
      5 C         139.9296  137.8109  157.9355 C.3     1  UNL1        0.1107
      6 C         139.4750  137.7373  159.3631 C.3     1  UNL1        0.0939
      7 N         140.0159  138.7052  160.3733 N.3     1  UNL1       -0.2695
      8 C         139.1786  138.0615  161.4384 C.3     1  UNL1        0.0726
      9 C         138.7239  137.9880  162.8659 C.3     1  UNL1        0.0236
     10 C         138.7737  138.5043  164.2734 C.3     1  UNL1        0.0452
     11 C         139.3147  139.4722  165.2836 C.ar    1  UNL1        0.0372
     12 C         138.6081  139.0438  166.5355 C.ar    1  UNL1       -0.0060
     13 C         137.6240  137.9177  166.6511 C.3     1  UNL1        0.0323
     14 C         139.0586  139.9391  167.6515 C.ar    1  UNL1        0.0438
     15 C         140.0436  140.9209  167.0894 C.ar    1  UNL1        0.0435
     16 N         140.2018  140.6323  165.6259 N.ar    1  UNL1       -0.3137
     17 C         141.1974  141.6738  165.2086 C.ar    1  UNL1        0.0646
     18 C         142.0702  142.8495  165.6508 C.ar    1  UNL1        0.0177
     19 C         143.0190  143.7219  164.8835 C.ar    1  UNL1        0.0072
     20 C         143.2286  143.4926  163.4160 C.ar    1  UNL1        0.0663
     21 C         142.4894  142.3911  162.7158 C.ar    1  UNL1        0.0505
     22 C         142.0347  142.3176  164.1434 C.ar    1  UNL1        0.0319
     23 N         142.4395  141.8747  161.3084 N.pl3   1  UNL1       -0.3314
     24 C         141.8986  140.9067  160.2982 C.3     1  UNL1        0.1050
     25 C         141.0114  139.7466  159.9559 C.3     1  UNL1        0.0972
     26 C         141.4661  139.8202  158.5284 C.3     1  UNL1        0.1110
     27 C         140.6691  141.9508  167.9827 C.3     1  UNL1        0.0446
     28 C         140.3097  141.9990  169.4381 C.3     1  UNL1        0.0128
     29 C         140.2899  142.4414  170.8713 C.3     1  UNL1        0.0008
     30 C         141.2877  143.1344  169.3737 C.3     1  UNL1        0.0008
     31 C         139.3247  141.0171  170.0003 C.3     1  UNL1        0.0695
     32 C         138.6992  139.9873  169.1070 C.2     1  UNL1        0.1739
     33 O         137.7143  139.0055  169.6692 O.2     1  UNL1       -0.2913
     34 H         143.0623  142.4472  160.8048 H       1  UNL1        0.1469
     35 C         144.1773  144.3649  162.6486 C.2     1  UNL1        0.2439
     36 N         144.2742  145.8279  162.9653 N.am    1  UNL1       -0.3253
     37 O         145.0293  143.7743  161.5644 O.2     1  UNL1       -0.2703
     38 H         143.7151  146.2156  163.6768 H       1  UNL1        0.1453
     39 H         144.8969  146.4004  162.4616 H       1  UNL1        0.1453
@<TRIPOS>BOND
     1     1     2    1
     2     2     3    2
     3     2     4   am
     4     4     5    1
     5     5     6    1
     6     6     7    1
     7     7     8    1
     8     8     9    1
     9     9    10    1
    10    10    11    1
    11    11    12   ar
    12    12    13    1
    13    12    14   ar
    14    14    15   ar
    15    15    16   ar
    16    16    17    1
    17    17    18   ar
    18    18    19   ar
    19    19    20   ar
    20    20    35    1
    21    35    36   am
    22    35    37    2
    23    20    21   ar
    24    21    22   ar
    25    21    23    1
    26    23    24    1
    27    25    24    1
    28    25    26    1
    29    15    27    1
    30    27    28    1
    31    28    29    1
    32    28    30    1
    33    28    31    1
    34    31    32    1
    35    32    33    2
    36    26     4    1
    37    25     7    1
    38    16    11   ar
    39    22    17   ar
    40    32    14    1
    41    36    38    1
    42    36    39    1
    43    23    34    1
@<TRIPOS>MOLECULE
*****
 39 43 0 0 0
SMALL
GASTEIGER

@<TRIPOS>ATOM
      1 C         144.3728  142.1293  154.2733 C.3     1  UNL1        0.0948
      2 C         143.3407  141.5857  155.2162 C.2     1  UNL1        0.2262
      3 O         142.1543  140.8401  154.6808 O.2     1  UNL1       -0.2749
      4 N         143.4950  141.7875  156.6945 N.am    1  UNL1       -0.2767
      5 C         144.6813  142.5330  157.2299 C.3     1  UNL1        0.1107
      6 C         144.8356  142.7349  158.7082 C.3     1  UNL1        0.0939
      7 N         143.8035  142.1913  159.6512 N.3     1  UNL1       -0.2695
      8 C         144.5775  142.7382  160.8138 C.3     1  UNL1        0.0726
      9 C         144.7318  142.9401  162.2921 C.3     1  UNL1        0.0236
     10 C         144.2249  142.7428  163.6901 C.3     1  UNL1        0.0452
     11 C         143.1928  142.1991  164.6330 C.ar    1  UNL1        0.0372
     12 C         143.7353  142.6211  165.9663 C.ar    1  UNL1       -0.0060
     13 C         145.0012  143.3914  166.1993 C.3     1  UNL1        0.0323
     14 C         142.7898  142.1376  167.0255 C.ar    1  UNL1        0.0438
     15 C         141.6628  141.4167  166.3470 C.ar    1  UNL1        0.0435
     16 N         141.9120  141.4548  164.8683 N.ar    1  UNL1       -0.3137
     17 C         140.7255  140.7092  164.3329 C.ar    1  UNL1        0.0646
     18 C         139.4322  139.9651  164.6696 C.ar    1  UNL1        0.0177
     19 C         138.4174  139.2960  163.7907 C.ar    1  UNL1        0.0072
     20 C         138.5999  139.2937  162.3019 C.ar    1  UNL1        0.0663
     21 C         139.7972  139.9604  161.6919 C.ar    1  UNL1        0.0505
     22 C         139.9515  140.1622  163.1702 C.ar    1  UNL1        0.0319
     23 N         140.3041  140.1577  160.2940 N.pl3   1  UNL1       -0.3314
     24 C         141.3362  140.7014  159.3511 C.3     1  UNL1        0.1050
     25 C         142.6171  141.4457  159.1158 C.3     1  UNL1        0.0972
     26 C         142.4629  141.2439  157.6374 C.3     1  UNL1        0.1110
     27 C         140.5554  140.8189  167.1632 C.3     1  UNL1        0.0446
     28 C         140.5749  140.9418  168.6580 C.3     1  UNL1        0.0128
     29 C         140.1521  140.7970  170.0898 C.3     1  UNL1        0.0008
     30 C         139.3012  140.1707  168.4767 C.3     1  UNL1        0.0008
     31 C         141.7019  141.6627  169.3366 C.3     1  UNL1        0.0695
     32 C         142.8093  142.2605  168.5203 C.2     1  UNL1        0.1739
     33 O         143.9362  142.9814  169.1989 O.2     1  UNL1       -0.2913
     34 H         139.6380  139.7186  159.7171 H       1  UNL1        0.1469
     35 C         137.5852  138.6246  161.4229 C.2     1  UNL1        0.2439
     36 N         137.1422  137.2229  161.7213 N.am    1  UNL1       -0.3253
     37 O         137.0133  139.3572  160.2454 O.2     1  UNL1       -0.2703
     38 H         137.5175  136.7421  162.4940 H       1  UNL1        0.1453
     39 H         136.4762  136.7838  161.1443 H       1  UNL1        0.1453
@<TRIPOS>BOND
     1     1     2    1
     2     2     3    2
     3     2     4   am
     4     4     5    1
     5     5     6    1
     6     6     7    1
     7     7     8    1
     8     8     9    1
     9     9    10    1
    10    10    11    1
    11    11    12   ar
    12    12    13    1
    13    12    14   ar
    14    14    15   ar
    15    15    16   ar
    16    16    17    1
    17    17    18   ar
    18    18    19   ar
    19    19    20   ar
    20    20    35    1
    21    35    36   am
    22    35    37    2
    23    20    21   ar
    24    21    22   ar
    25    21    23    1
    26    23    24    1
    27    25    24    1
    28    25    26    1
    29    15    27    1
    30    27    28    1
    31    28    29    1
    32    28    30    1
    33    28    31    1
    34    31    32    1
    35    32    33    2
    36    26     4    1
    37    25     7    1
    38    16    11   ar
    39    22    17   ar
    40    32    14    1
    41    36    38    1
    42    36    39    1
    43    23    34    1
@<TRIPOS>MOLECULE
*****
 39 43 0 0 0
SMALL
GASTEIGER

@<TRIPOS>ATOM
      1 C         137.5300  140.5015  155.8605 C.3     1  UNL1        0.0948
      2 C         138.5682  141.1094  156.7564 C.2     1  UNL1        0.2262
      3 O         139.6556  141.9622  156.1731 O.2     1  UNL1       -0.2749
      4 N         138.5190  140.8645  158.2354 N.am    1  UNL1       -0.2767
      5 C         137.4316  140.0116  158.8186 C.3     1  UNL1        0.1107
      6 C         137.3823  139.7667  160.2977 C.3     1  UNL1        0.0939
      7 N         138.4205  140.3746  161.1935 N.3     1  UNL1       -0.2695
      8 C         137.7642  139.7408  162.3841 C.3     1  UNL1        0.0726
      9 C         137.7150  139.4959  163.8632 C.3     1  UNL1        0.0236
     10 C         138.2860  139.7055  165.2344 C.3     1  UNL1        0.0452
     11 C         139.3242  140.3134  166.1302 C.ar    1  UNL1        0.0372
     12 C         138.8981  139.8199  167.4811 C.ar    1  UNL1       -0.0060
     13 C         137.7157  138.9421  167.7665 C.3     1  UNL1        0.0323
     14 C         139.8620  140.3582  168.4964 C.ar    1  UNL1        0.0438
     15 C         140.8839  141.1845  167.7732 C.ar    1  UNL1        0.0435
     16 N         140.5514  141.1568  166.3107 N.ar    1  UNL1       -0.3137
     17 C         141.6389  142.0097  165.7275 C.ar    1  UNL1        0.0646
     18 C         142.8845  142.8518  166.0085 C.ar    1  UNL1        0.0177
     19 C         143.7871  143.6214  165.0904 C.ar    1  UNL1        0.0072
     20 C         143.5171  143.6397  163.6150 C.ar    1  UNL1        0.0663
     21 C         142.3444  142.8884  163.0578 C.ar    1  UNL1        0.0505
     22 C         142.2951  142.6435  164.5368 C.ar    1  UNL1        0.0319
     23 N         141.7734  142.6788  161.6867 N.pl3   1  UNL1       -0.3314
     24 C         140.7351  142.0709  160.7908 C.3     1  UNL1        0.1050
     25 C         139.5079  141.2275  160.6103 C.3     1  UNL1        0.0972
     26 C         139.5571  141.4724  159.1312 C.3     1  UNL1        0.1110
     27 C         141.9850  141.8554  168.5397 C.3     1  UNL1        0.0446
     28 C         142.0643  141.7000  170.0294 C.3     1  UNL1        0.0128
     29 C         142.5580  141.8495  171.4379 C.3     1  UNL1        0.0008
     30 C         143.2576  142.5782  169.7953 C.3     1  UNL1        0.0008
     31 C         141.0424  140.8736  170.7527 C.3     1  UNL1        0.0695
     32 C         139.9413  140.2028  169.9863 C.2     1  UNL1        0.1739
     33 O         138.9196  139.3765  170.7096 O.2     1  UNL1       -0.2913
     34 H         142.3658  143.1839  161.0840 H       1  UNL1        0.1469
     35 C         144.4196  144.4092  162.6968 C.2     1  UNL1        0.2439
     36 N         145.1631  143.6972  161.6058 N.am    1  UNL1       -0.3253
     37 O         144.5787  145.8907  162.8694 O.2     1  UNL1       -0.2703
     38 H         145.0587  142.7248  161.4924 H       1  UNL1        0.1453
     39 H         145.7555  144.2022  161.0031 H       1  UNL1        0.1453
@<TRIPOS>BOND
     1     1     2    1
     2     2     3    2
     3     2     4   am
     4     4     5    1
     5     5     6    1
     6     6     7    1
     7     7     8    1
     8     8     9    1
     9     9    10    1
    10    10    11    1
    11    11    12   ar
    12    12    13    1
    13    12    14   ar
    14    14    15   ar
    15    15    16   ar
    16    16    17    1
    17    17    18   ar
    18    18    19   ar
    19    19    20   ar
    20    20    35    1
    21    35    36   am
    22    35    37    2
    23    20    21   ar
    24    21    22   ar
    25    21    23    1
    26    23    24    1
    27    25    24    1
    28    25    26    1
    29    15    27    1
    30    27    28    1
    31    28    29    1
    32    28    30    1
    33    28    31    1
    34    31    32    1
    35    32    33    2
    36    26     4    1
    37    25     7    1
    38    16    11   ar
    39    22    17   ar
    40    32    14    1
    41    36    38    1
    42    36    39    1
    43    23    34    1
@<TRIPOS>MOLECULE
*****
 39 43 0 0 0
SMALL
GASTEIGER

@<TRIPOS>ATOM
      1 C         142.3840  133.2108  153.3522 C.3     1  UNL1        0.0948
      2 C         141.5086  134.3795  153.6952 C.2     1  UNL1        0.2262
      3 O         140.4094  134.7926  152.7620 O.2     1  UNL1       -0.2749
      4 N         141.7325  135.1352  154.9715 N.am    1  UNL1       -0.2767
      5 C         142.8317  134.7221  155.9048 C.3     1  UNL1        0.1107
      6 C         143.0555  135.4777  157.1811 C.3     1  UNL1        0.0939
      7 N         142.1801  136.6464  157.5241 N.3     1  UNL1       -0.2695
      8 C         142.9440  136.8441  158.7998 C.3     1  UNL1        0.0726
      9 C         143.1679  137.5997  160.0761 C.3     1  UNL1        0.0236
     10 C         142.7917  138.7108  161.0111 C.3     1  UNL1        0.0452
     11 C         141.9163  139.8795  161.3541 C.ar    1  UNL1        0.0372
     12 C         142.4815  140.3159  162.6733 C.ar    1  UNL1       -0.0060
     13 C         143.6349  139.6808  163.3917 C.3     1  UNL1        0.0323
     14 C         141.6907  141.4989  163.1477 C.ar    1  UNL1        0.0438
     15 C         140.6367  141.7937  162.1219 C.ar    1  UNL1        0.0435
     16 N         140.7762  140.7928  161.0134 N.ar    1  UNL1       -0.3137
     17 C         139.6769  141.2059  160.0801 C.ar    1  UNL1        0.0646
     18 C         138.5315  142.1850  159.8174 C.ar    1  UNL1        0.0177
     19 C         137.5670  142.2966  158.6740 C.ar    1  UNL1        0.0072
     20 C         137.6458  141.3303  157.5293 C.ar    1  UNL1        0.0663
     21 C         138.6891  140.2525  157.5281 C.ar    1  UNL1        0.0505
     22 C         138.9130  141.0082  158.8044 C.ar    1  UNL1        0.0319
     23 N         139.0653  139.1415  156.5932 N.pl3   1  UNL1       -0.3314
     24 C         139.9408  137.9728  156.2502 C.3     1  UNL1        0.1050
     25 C         141.0809  137.0595  156.5909 C.3     1  UNL1        0.0972
     26 C         140.8571  136.3039  155.3146 C.3     1  UNL1        0.1110
     27 C         139.6863  142.9353  162.3297 C.3     1  UNL1        0.0446
     28 C         139.7897  143.7822  163.5634 C.3     1  UNL1        0.0128
     29 C         139.4911  144.8617  164.5611 C.3     1  UNL1        0.0008
     30 C         138.6321  144.4519  162.8841 C.3     1  UNL1        0.0008
     31 C         140.8437  143.4875  164.5893 C.3     1  UNL1        0.0695
     32 C         141.7941  142.3458  164.3814 C.2     1  UNL1        0.1739
     33 O         142.8480  142.0511  165.4073 O.2     1  UNL1       -0.2913
     34 H         138.4324  139.2147  155.8427 H       1  UNL1        0.1469
     35 C         136.6814  141.4418  156.3859 C.2     1  UNL1        0.2439
     36 N         136.1566  142.7857  155.9757 N.am    1  UNL1       -0.3253
     37 O         136.2418  140.2093  155.6526 O.2     1  UNL1       -0.2703
     38 H         136.4451  143.5947  156.4570 H       1  UNL1        0.1453
     39 H         135.5236  142.8589  155.2252 H       1  UNL1        0.1453
@<TRIPOS>BOND
     1     1     2    1
     2     2     3    2
     3     2     4   am
     4     4     5    1
     5     5     6    1
     6     6     7    1
     7     7     8    1
     8     8     9    1
     9     9    10    1
    10    10    11    1
    11    11    12   ar
    12    12    13    1
    13    12    14   ar
    14    14    15   ar
    15    15    16   ar
    16    16    17    1
    17    17    18   ar
    18    18    19   ar
    19    19    20   ar
    20    20    35    1
    21    35    36   am
    22    35    37    2
    23    20    21   ar
    24    21    22   ar
    25    21    23    1
    26    23    24    1
    27    25    24    1
    28    25    26    1
    29    15    27    1
    30    27    28    1
    31    28    29    1
    32    28    30    1
    33    28    31    1
    34    31    32    1
    35    32    33    2
    36    26     4    1
    37    25     7    1
    38    16    11   ar
    39    22    17   ar
    40    32    14    1
    41    36    38    1
    42    36    39    1
    43    23    34    1
@<TRIPOS>MOLECULE
*****
 39 43 0 0 0
SMALL
GASTEIGER

@<TRIPOS>ATOM
      1 C         142.6290  139.5731  169.4501 C.3     1  UNL1        0.0948
      2 C         142.2422  140.5547  168.3840 C.2     1  UNL1        0.2262
      3 O         141.8083  141.9399  168.7617 O.2     1  UNL1       -0.2749
      4 N         142.2894  140.1511  166.9400 N.am    1  UNL1       -0.2767
      5 C         142.7233  138.7659  166.5623 C.3     1  UNL1        0.1107
      6 C         142.7705  138.3622  165.1184 C.3     1  UNL1        0.0939
      7 N         142.3838  139.3439  164.0522 N.3     1  UNL1       -0.2695
      8 C         142.6616  138.3111  163.0005 C.3     1  UNL1        0.0726
      9 C         142.7087  137.9075  161.5566 C.3     1  UNL1        0.0236
     10 C         142.5127  138.2412  160.1074 C.3     1  UNL1        0.0452
     11 C         142.1259  139.2229  159.0412 C.ar    1  UNL1        0.0372
     12 C         142.3172  138.4167  157.7908 C.ar    1  UNL1       -0.0060
     13 C         142.7825  136.9923  157.7226 C.3     1  UNL1        0.0323
     14 C         141.9616  139.2851  156.6206 C.ar    1  UNL1        0.0438
     15 C         141.5505  140.6279  157.1476 C.ar    1  UNL1        0.0435
     16 N         141.6521  140.5894  158.6437 N.ar    1  UNL1       -0.3137
     17 C         141.2181  141.9748  159.0215 C.ar    1  UNL1        0.0646
     18 C         140.7390  143.3388  158.5220 C.ar    1  UNL1        0.0177
     19 C         140.3706  144.5905  159.2619 C.ar    1  UNL1        0.0072
     20 C         140.4477  144.6267  160.7595 C.ar    1  UNL1        0.0663
     21 C         140.8932  143.4112  161.5172 C.ar    1  UNL1        0.0505
     22 C         140.9403  143.0076  160.0733 C.ar    1  UNL1        0.0319
     23 N         141.0892  143.0774  162.9663 N.pl3   1  UNL1       -0.3314
     24 C         141.4760  142.0957  164.0325 C.3     1  UNL1        0.1050
     25 C         141.9498  140.7291  164.4300 C.3     1  UNL1        0.0972
     26 C         141.9027  141.1327  165.8739 C.3     1  UNL1        0.1110
     27 C         141.1368  141.7122  156.1973 C.3     1  UNL1        0.0446
     28 C         141.1342  141.4537  154.7198 C.3     1  UNL1        0.0128
     29 C         140.9689  141.6899  153.2478 C.3     1  UNL1        0.0008
     30 C         140.6657  142.8785  154.7357 C.3     1  UNL1        0.0008
     31 C         141.5453  140.1108  154.1926 C.3     1  UNL1        0.0695
     32 C         141.9590  139.0265  155.1430 C.2     1  UNL1        0.1739
     33 O         142.3701  137.6837  154.6158 O.2     1  UNL1       -0.2913
     34 H         140.8474  143.8990  163.4520 H       1  UNL1        0.1469
     35 C         140.0793  145.8784  161.4995 C.2     1  UNL1        0.2439
     36 N         140.8085  146.2483  162.7570 N.am    1  UNL1       -0.3253
     37 O         138.9817  146.7602  160.9820 O.2     1  UNL1       -0.2703
     38 H         141.5289  145.6696  163.0967 H       1  UNL1        0.1453
     39 H         140.5667  147.0698  163.2427 H       1  UNL1        0.1453
@<TRIPOS>BOND
     1     1     2    1
     2     2     3    2
     3     2     4   am
     4     4     5    1
     5     5     6    1
     6     6     7    1
     7     7     8    1
     8     8     9    1
     9     9    10    1
    10    10    11    1
    11    11    12   ar
    12    12    13    1
    13    12    14   ar
    14    14    15   ar
    15    15    16   ar
    16    16    17    1
    17    17    18   ar
    18    18    19   ar
    19    19    20   ar
    20    20    35    1
    21    35    36   am
    22    35    37    2
    23    20    21   ar
    24    21    22   ar
    25    21    23    1
    26    23    24    1
    27    25    24    1
    28    25    26    1
    29    15    27    1
    30    27    28    1
    31    28    29    1
    32    28    30    1
    33    28    31    1
    34    31    32    1
    35    32    33    2
    36    26     4    1
    37    25     7    1
    38    16    11   ar
    39    22    17   ar
    40    32    14    1
    41    36    38    1
    42    36    39    1
    43    23    34    1
@<TRIPOS>MOLECULE
*****
 39 43 0 0 0
SMALL
GASTEIGER

@<TRIPOS>ATOM
      1 C         140.5477  145.8880  154.3745 C.3     1  UNL1        0.0948
      2 C         141.0801  144.7421  155.1827 C.2     1  UNL1        0.2262
      3 O         141.8139  143.6232  154.5048 O.2     1  UNL1       -0.2749
      4 N         140.8787  144.7151  156.6689 N.am    1  UNL1       -0.2767
      5 C         140.1449  145.8339  157.3468 C.3     1  UNL1        0.1107
      6 C         139.9435  145.8069  158.8330 C.3     1  UNL1        0.0939
      7 N         140.4759  144.6610  159.6412 N.3     1  UNL1       -0.2695
      8 C         139.9359  145.2913  160.8906 C.3     1  UNL1        0.0726
      9 C         139.7345  145.2643  162.3768 C.3     1  UNL1        0.0236
     10 C         139.9256  144.5870  163.7016 C.3     1  UNL1        0.0452
     11 C         140.4580  143.4411  164.5098 C.ar    1  UNL1        0.0372
     12 C         140.0406  143.8194  165.9000 C.ar    1  UNL1       -0.0060
     13 C         139.2831  145.0547  166.2877 C.3     1  UNL1        0.0323
     14 C         140.5136  142.7457  166.8344 C.ar    1  UNL1        0.0438
     15 C         141.2235  141.7036  166.0218 C.ar    1  UNL1        0.0435
     16 N         141.1891  142.1335  164.5851 N.ar    1  UNL1       -0.3137
     17 C         141.9229  141.0145  163.9072 C.ar    1  UNL1        0.0646
     18 C         142.6536  139.6821  164.0816 C.ar    1  UNL1        0.0177
     19 C         143.3130  138.7766  163.0840 C.ar    1  UNL1        0.0072
     20 C         143.3183  139.1411  161.6290 C.ar    1  UNL1        0.0663
     21 C         142.6643  140.4112  161.1715 C.ar    1  UNL1        0.0505
     22 C         142.4629  140.3841  162.6577 C.ar    1  UNL1        0.0319
     23 N         142.4732  141.0884  159.8469 N.pl3   1  UNL1       -0.3314
     24 C         141.9407  142.2344  159.0386 C.3     1  UNL1        0.1050
     25 C         141.2097  143.5421  158.9633 C.3     1  UNL1        0.0972
     26 C         141.4111  143.5691  157.4772 C.3     1  UNL1        0.1110
     27 C         141.8094  140.4980  166.6950 C.3     1  UNL1        0.0446
     28 C         141.6855  140.3344  168.1809 C.3     1  UNL1        0.0128
     29 C         141.8250  139.7369  169.5496 C.3     1  UNL1        0.0008
     30 C         142.4438  139.0849  167.8436 C.3     1  UNL1        0.0008
     31 C         140.9757  141.3765  168.9935 C.3     1  UNL1        0.0695
     32 C         140.3898  142.5821  168.3203 C.2     1  UNL1        0.1739
     33 O         139.6799  143.6240  169.1330 O.2     1  UNL1       -0.2913
     34 H         142.9059  140.4941  159.1921 H       1  UNL1        0.1469
     35 C         143.9776  138.2357  160.6313 C.2     1  UNL1        0.2439
     36 N         144.8073  137.0782  161.1024 N.am    1  UNL1       -0.3253
     37 O         143.8074  138.4876  159.1624 O.2     1  UNL1       -0.2703
     38 H         144.9190  136.9128  162.0665 H       1  UNL1        0.1453
     39 H         145.2400  136.4839  160.4476 H       1  UNL1        0.1453
@<TRIPOS>BOND
     1     1     2    1
     2     2     3    2
     3     2     4   am
     4     4     5    1
     5     5     6    1
     6     6     7    1
     7     7     8    1
     8     8     9    1
     9     9    10    1
    10    10    11    1
    11    11    12   ar
    12    12    13    1
    13    12    14   ar
    14    14    15   ar
    15    15    16   ar
    16    16    17    1
    17    17    18   ar
    18    18    19   ar
    19    19    20   ar
    20    20    35    1
    21    35    36   am
    22    35    37    2
    23    20    21   ar
    24    21    22   ar
    25    21    23    1
    26    23    24    1
    27    25    24    1
    28    25    26    1
    29    15    27    1
    30    27    28    1
    31    28    29    1
    32    28    30    1
    33    28    31    1
    34    31    32    1
    35    32    33    2
    36    26     4    1
    37    25     7    1
    38    16    11   ar
    39    22    17   ar
    40    32    14    1
    41    36    38    1
    42    36    39    1
    43    23    34    1
@<TRIPOS>MOLECULE
*****
 39 43 0 0 0
SMALL
GASTEIGER

@<TRIPOS>ATOM
      1 C         140.7238  141.7197  170.9307 C.3     1  UNL1        0.0948
      2 C         140.5690  142.4601  169.6354 C.2     1  UNL1        0.2262
      3 O         140.0775  143.8773  169.6358 O.2     1  UNL1       -0.2749
      4 N         140.9056  141.7834  168.3398 N.am    1  UNL1       -0.2767
      5 C         141.3970  140.3662  168.3394 C.3     1  UNL1        0.1107
      6 C         141.7337  139.6894  167.0437 C.3     1  UNL1        0.0939
      7 N         141.5788  140.4299  165.7485 N.3     1  UNL1       -0.2695
      8 C         142.0569  139.2209  165.0003 C.3     1  UNL1        0.0726
      9 C         142.3935  138.5442  163.7046 C.3     1  UNL1        0.0236
     10 C         142.4985  138.5809  162.2087 C.3     1  UNL1        0.0452
     11 C         142.3437  139.3213  160.9134 C.ar    1  UNL1        0.0372
     12 C         142.7791  138.2928  159.9122 C.ar    1  UNL1       -0.0060
     13 C         143.2380  136.8989  160.2229 C.3     1  UNL1        0.0323
     14 C         142.6751  138.9028  158.5459 C.ar    1  UNL1        0.0438
     15 C         142.1753  140.3084  158.7025 C.ar    1  UNL1        0.0435
     16 N         141.9705  140.5671  160.1658 N.ar    1  UNL1       -0.3137
     17 C         141.4790  141.9843  160.1661 C.ar    1  UNL1        0.0646
     18 C         141.1214  143.2074  159.3201 C.ar    1  UNL1        0.0177
     19 C         140.6196  144.5668  159.7075 C.ar    1  UNL1        0.0072
     20 C         140.3910  144.8981  161.1525 C.ar    1  UNL1        0.0663
     21 C         140.6643  143.8700  162.2101 C.ar    1  UNL1        0.0505
     22 C         141.0009  143.1933  160.9144 C.ar    1  UNL1        0.0319
     23 N         140.5593  143.8332  163.7059 N.pl3   1  UNL1       -0.3314
     24 C         140.7142  143.0927  165.0012 C.3     1  UNL1        0.1050
     25 C         141.0874  141.8470  165.7489 C.3     1  UNL1        0.0972
     26 C         140.7507  142.5238  167.0445 C.3     1  UNL1        0.1110
     27 C         141.9714  141.1712  157.4925 C.3     1  UNL1        0.0446
     28 C         142.2671  140.6284  156.1259 C.3     1  UNL1        0.0128
     29 C         142.4061  140.5662  154.6337 C.3     1  UNL1        0.0008
     30 C         141.8156  142.0124  155.7643 C.3     1  UNL1        0.0008
     31 C         142.7669  139.2227  155.9692 C.3     1  UNL1        0.0695
     32 C         142.9709  138.3600  157.1792 C.2     1  UNL1        0.1739
     33 O         143.4706  136.9544  157.0224 O.2     1  UNL1       -0.2913
     34 H         140.2299  144.7255  163.9603 H       1  UNL1        0.1469
     35 C         139.8891  146.2575  161.5401 C.2     1  UNL1        0.2439
     36 N         138.9261  146.9837  160.6484 N.am    1  UNL1       -0.3253
     37 O         140.3502  146.8907  162.8193 O.2     1  UNL1       -0.2703
     38 H         138.6234  146.5682  159.8088 H       1  UNL1        0.1453
     39 H         138.5966  147.8759  160.9027 H       1  UNL1        0.1453
@<TRIPOS>BOND
     1     1     2    1
     2     2     3    2
     3     2     4   am
     4     4     5    1
     5     5     6    1
     6     6     7    1
     7     7     8    1
     8     8     9    1
     9     9    10    1
    10    10    11    1
    11    11    12   ar
    12    12    13    1
    13    12    14   ar
    14    14    15   ar
    15    15    16   ar
    16    16    17    1
    17    17    18   ar
    18    18    19   ar
    19    19    20   ar
    20    20    35    1
    21    35    36   am
    22    35    37    2
    23    20    21   ar
    24    21    22   ar
    25    21    23    1
    26    23    24    1
    27    25    24    1
    28    25    26    1
    29    15    27    1
    30    27    28    1
    31    28    29    1
    32    28    30    1
    33    28    31    1
    34    31    32    1
    35    32    33    2
    36    26     4    1
    37    25     7    1
    38    16    11   ar
    39    22    17   ar
    40    32    14    1
    41    36    38    1
    42    36    39    1
    43    23    34    1
@<TRIPOS>MOLECULE
*****
 39 43 0 0 0
SMALL
GASTEIGER

@<TRIPOS>ATOM
      1 C         144.3978  130.4699  156.1919 C.3     1  UNL1        0.0948
      2 C         144.3744  131.8452  156.7902 C.2     1  UNL1        0.2262
      3 O         145.2379  132.1624  157.9749 O.2     1  UNL1       -0.2749
      4 N         143.4876  132.9033  156.2037 N.am    1  UNL1       -0.2767
      5 C         142.6241  132.5860  155.0189 C.3     1  UNL1        0.1107
      6 C         141.7372  133.6441  154.4324 C.3     1  UNL1        0.0939
      7 N         141.7138  135.0194  155.0307 N.3     1  UNL1       -0.2695
      8 C         140.7033  135.4471  154.0080 C.3     1  UNL1        0.0726
      9 C         139.8164  136.5051  153.4215 C.3     1  UNL1        0.0236
     10 C         139.2909  137.9101  153.4283 C.3     1  UNL1        0.0452
     11 C         139.2675  139.2854  154.0266 C.ar    1  UNL1        0.0372
     12 C         138.2741  139.9897  153.1507 C.ar    1  UNL1       -0.0060
     13 C         137.5388  139.3873  151.9904 C.3     1  UNL1        0.0323
     14 C         138.1453  141.4021  153.6388 C.ar    1  UNL1        0.0438
     15 C         139.0589  141.5709  154.8164 C.ar    1  UNL1        0.0435
     16 N         139.7525  140.2626  155.0561 N.ar    1  UNL1       -0.3137
     17 C         140.6160  140.5799  156.2409 C.ar    1  UNL1        0.0646
     18 C         141.0512  141.6439  157.2499 C.ar    1  UNL1        0.0177
     19 C         142.0213  141.5868  158.3926 C.ar    1  UNL1        0.0072
     20 C         142.7524  140.3119  158.6927 C.ar    1  UNL1        0.0663
     21 C         142.5135  139.0941  157.8501 C.ar    1  UNL1        0.0505
     22 C         141.6266  140.1521  157.2636 C.ar    1  UNL1        0.0319
     23 N         143.0390  137.6892  157.8433 N.pl3   1  UNL1       -0.3314
     24 C         143.0623  136.3138  157.2449 C.3     1  UNL1        0.1050
     25 C         142.5773  135.3366  156.2154 C.3     1  UNL1        0.0972
     26 C         143.4642  134.2786  156.8019 C.3     1  UNL1        0.1110
     27 C         139.1413  142.8939  155.5183 C.3     1  UNL1        0.0446
     28 C         138.3101  144.0483  155.0427 C.3     1  UNL1        0.0128
     29 C         137.7256  145.4276  154.9668 C.3     1  UNL1        0.0008
     30 C         139.0207  144.6961  156.1939 C.3     1  UNL1        0.0008
     31 C         137.3963  143.8796  153.8650 C.3     1  UNL1        0.0695
     32 C         137.3140  142.5565  153.1631 C.2     1  UNL1        0.1739
     33 O         136.4003  142.3879  151.9855 O.2     1  UNL1       -0.2913
     34 H         143.6757  137.6516  158.5932 H       1  UNL1        0.1469
     35 C         143.7225  140.2546  159.8353 C.2     1  UNL1        0.2439
     36 N         144.0731  141.5058  160.5848 N.am    1  UNL1       -0.3253
     37 O         144.3420  138.9463  160.2285 O.2     1  UNL1       -0.2703
     38 H         143.6666  142.3645  160.3267 H       1  UNL1        0.1453
     39 H         144.7098  141.4682  161.3347 H       1  UNL1        0.1453
@<TRIPOS>BOND
     1     1     2    1
     2     2     3    2
     3     2     4   am
     4     4     5    1
     5     5     6    1
     6     6     7    1
     7     7     8    1
     8     8     9    1
     9     9    10    1
    10    10    11    1
    11    11    12   ar
    12    12    13    1
    13    12    14   ar
    14    14    15   ar
    15    15    16   ar
    16    16    17    1
    17    17    18   ar
    18    18    19   ar
    19    19    20   ar
    20    20    35    1
    21    35    36   am
    22    35    37    2
    23    20    21   ar
    24    21    22   ar
    25    21    23    1
    26    23    24    1
    27    25    24    1
    28    25    26    1
    29    15    27    1
    30    27    28    1
    31    28    29    1
    32    28    30    1
    33    28    31    1
    34    31    32    1
    35    32    33    2
    36    26     4    1
    37    25     7    1
    38    16    11   ar
    39    22    17   ar
    40    32    14    1
    41    36    38    1
    42    36    39    1
    43    23    34    1
