@<TRIPOS>MOLECULE
*****
 35 38 0 0 0
SMALL
GASTEIGER

@<TRIPOS>ATOM
      1 N         141.0332  140.0388  164.2853 N.am    1  UNL1       -0.1691
      2 C         140.0206  140.1950  163.1898 C.2     1  UNL1        0.3226
      3 O         138.7256  140.9020  163.4607 O.2     1  UNL1       -0.2510
      4 N         140.3028  139.6443  161.8234 N.am    1  UNL1       -0.2629
      5 C         141.5976  138.9373  161.5525 C.3     1  UNL1        0.0964
      6 C         141.8799  138.3866  160.1861 C.3     1  UNL1        0.0376
      7 C         140.8672  138.5429  159.0906 C.3     1  UNL1        0.0609
      8 C         139.5723  139.2499  159.3615 C.3     1  UNL1        0.0376
      9 C         139.2900  139.8006  160.7279 C.3     1  UNL1        0.0964
     10 H         141.8831  139.5748  164.1074 H       1  UNL1        0.1781
     11 N         141.1494  137.9922  157.7242 N.3     1  UNL1       -0.2736
     12 C         140.0197  137.5191  156.8582 C.3     1  UNL1        0.0758
     13 C         140.3020  136.9684  155.4918 C.3     1  UNL1        0.0609
     14 C         141.7139  136.8907  154.9914 C.3     1  UNL1        0.1687
     15 C         142.8436  137.3637  155.8574 C.3     1  UNL1        0.0609
     16 C         142.5614  137.9145  157.2238 C.3     1  UNL1        0.0758
     17 O         141.9961  136.3400  153.6250 O.3     1  UNL1       -0.4790
     18 C         142.1468  134.8605  153.4291 C.ar    1  UNL1        0.1393
     19 C         141.6629  134.2186  152.1627 C.ar    1  UNL1        0.0378
     20 C         141.8136  132.7390  151.9668 C.ar    1  UNL1        0.0154
     21 C         142.4482  131.9015  153.0372 C.ar    1  UNL1        0.0684
     22 CL        142.5990  130.4221  152.8413 Cl      1  UNL1       -0.0814
     23 C         142.9322  132.5436  154.3036 C.ar    1  UNL1        0.0712
     24 CL        143.5668  131.7061  155.3740 Cl      1  UNL1       -0.0813
     25 C         142.7814  134.0230  154.4995 C.ar    1  UNL1        0.0491
     26 S         140.7510  140.5895  165.6517 S.O2    1  UNL1        0.0768
     27 O         140.1518  139.2756  166.0575 O.2     1  UNL1       -0.1498
     28 O         141.3502  141.9034  165.2459 O.2     1  UNL1       -0.1498
     29 C         139.6221  142.7924  171.1173 C.3     1  UNL1        0.0310
     30 C         139.9043  142.2417  169.7509 C.ar    1  UNL1       -0.0218
     31 C         139.6351  140.7961  169.4546 C.ar    1  UNL1       -0.0029
     32 C         139.9173  140.2454  168.0882 C.ar    1  UNL1        0.0199
     33 C         140.4688  141.1402  167.0181 C.ar    1  UNL1        0.1253
     34 C         140.7380  142.5858  167.3144 C.ar    1  UNL1        0.0199
     35 C         140.4557  143.1365  168.6808 C.ar    1  UNL1       -0.0029
@<TRIPOS>BOND
     1    29    30    1
     2    30    31   ar
     3    31    32   ar
     4    32    33   ar
     5    33    26    1
     6    26    27    2
     7    26    28    2
     8    26     1    1
     9     1     2   am
    10     2     3    2
    11     2     4   am
    12     4     5    1
    13     5     6    1
    14     6     7    1
    15     7    11    1
    16    11    12    1
    17    12    13    1
    18    13    14    1
    19    14    17    1
    20    17    18    1
    21    18    19   ar
    22    19    20   ar
    23    20    21   ar
    24    21    22    1
    25    21    23   ar
    26    23    24    1
    27    23    25   ar
    28    14    15    1
    29    15    16    1
    30     7     8    1
    31     8     9    1
    32    33    34   ar
    33    34    35   ar
    34    35    30   ar
    35     9     4    1
    36    16    11    1
    37    25    18   ar
    38     1    10    1
@<TRIPOS>MOLECULE
*****
 35 38 0 0 0
SMALL
GASTEIGER

@<TRIPOS>ATOM
      1 N         135.1376  140.3148  156.7815 N.am    1  UNL1       -0.1691
      2 C         136.1032  140.0784  155.6583 C.2     1  UNL1        0.3226
      3 O         135.6105  139.5469  154.3449 O.2     1  UNL1       -0.2510
      4 N         137.5616  140.3735  155.8483 N.am    1  UNL1       -0.2629
      5 C         138.0543  140.9050  157.1616 C.3     1  UNL1        0.0964
      6 C         139.5127  141.2001  157.3517 C.3     1  UNL1        0.0376
      7 C         140.4783  140.9638  156.2285 C.3     1  UNL1        0.0609
      8 C         139.9856  140.4322  154.9151 C.3     1  UNL1        0.0376
      9 C         138.5272  140.1371  154.7250 C.3     1  UNL1        0.0964
     10 H         135.4610  140.6636  157.6435 H       1  UNL1        0.1781
     11 N         141.9366  141.2589  156.4185 N.3     1  UNL1       -0.2736
     12 C         142.3626  142.5167  157.1160 C.3     1  UNL1        0.0758
     13 C         143.8210  142.8118  157.3060 C.3     1  UNL1        0.0609
     14 C         144.8533  141.8491  156.7986 C.3     1  UNL1        0.1687
     15 C         144.4274  140.5913  156.1011 C.3     1  UNL1        0.0609
     16 C         142.9690  140.2962  155.9111 C.3     1  UNL1        0.0758
     17 O         146.3117  142.1443  156.9887 O.3     1  UNL1       -0.4790
     18 C         147.1860  142.4030  155.7976 C.ar    1  UNL1        0.1393
     19 C         146.6944  143.2772  154.6823 C.ar    1  UNL1        0.0378
     20 C         147.5687  143.5360  153.4911 C.ar    1  UNL1        0.0154
     21 C         148.9345  142.9206  153.4154 C.ar    1  UNL1        0.0684
     22 CL        149.8088  143.1793  152.2244 Cl      1  UNL1       -0.0814
     23 C         149.4261  142.0463  154.5309 C.ar    1  UNL1        0.0712
     24 CL        150.7919  141.4308  154.4552 Cl      1  UNL1       -0.0813
     25 C         148.5518  141.7875  155.7219 C.ar    1  UNL1        0.0491
     26 S         133.6793  140.0196  156.5914 S.O2    1  UNL1        0.0768
     27 O         133.8442  138.7266  157.3335 O.2     1  UNL1       -0.1498
     28 O         133.5143  141.3127  155.8493 O.2     1  UNL1       -0.1498
     29 C         127.8459  138.8391  155.8312 C.3     1  UNL1        0.0310
     30 C         129.3042  139.1343  156.0213 C.ar    1  UNL1       -0.0218
     31 C         129.8268  140.5193  155.7797 C.ar    1  UNL1       -0.0029
     32 C         131.2852  140.8145  155.9697 C.ar    1  UNL1        0.0199
     33 C         132.2209  139.7245  156.4014 C.ar    1  UNL1        0.1253
     34 C         131.6983  138.3395  156.6430 C.ar    1  UNL1        0.0199
     35 C         130.2400  138.0443  156.4529 C.ar    1  UNL1       -0.0029
@<TRIPOS>BOND
     1    29    30    1
     2    30    31   ar
     3    31    32   ar
     4    32    33   ar
     5    33    26    1
     6    26    27    2
     7    26    28    2
     8    26     1    1
     9     1     2   am
    10     2     3    2
    11     2     4   am
    12     4     5    1
    13     5     6    1
    14     6     7    1
    15     7    11    1
    16    11    12    1
    17    12    13    1
    18    13    14    1
    19    14    17    1
    20    17    18    1
    21    18    19   ar
    22    19    20   ar
    23    20    21   ar
    24    21    22    1
    25    21    23   ar
    26    23    24    1
    27    23    25   ar
    28    14    15    1
    29    15    16    1
    30     7     8    1
    31     8     9    1
    32    33    34   ar
    33    34    35   ar
    34    35    30   ar
    35     9     4    1
    36    16    11    1
    37    25    18   ar
    38     1    10    1
@<TRIPOS>MOLECULE
*****
 35 38 0 0 0
SMALL
GASTEIGER

@<TRIPOS>ATOM
      1 N         139.4889  142.7210  160.8515 N.am    1  UNL1       -0.1691
      2 C         139.0128  142.4751  159.4505 C.2     1  UNL1        0.3226
      3 O         138.2808  141.2085  159.1186 O.2     1  UNL1       -0.2510
      4 N         139.2688  143.4956  158.3814 N.am    1  UNL1       -0.2629
      5 C         140.0008  144.7621  158.7133 C.3     1  UNL1        0.0964
      6 C         140.2567  145.7826  157.6442 C.3     1  UNL1        0.0376
      7 C         139.7806  145.5367  156.2432 C.3     1  UNL1        0.0609
      8 C         139.0485  144.2702  155.9112 C.3     1  UNL1        0.0376
      9 C         138.7926  143.2496  156.9803 C.3     1  UNL1        0.0964
     10 H         139.9694  143.5522  161.0693 H       1  UNL1        0.1781
     11 N         140.0365  146.5573  155.1741 N.3     1  UNL1       -0.2736
     12 C         139.5048  147.9516  155.3256 C.3     1  UNL1        0.0758
     13 C         139.7608  148.9722  154.2565 C.3     1  UNL1        0.0609
     14 C         140.5483  148.5984  153.0359 C.3     1  UNL1        0.1687
     15 C         141.0801  147.2039  152.8843 C.3     1  UNL1        0.0609
     16 C         140.8241  146.1834  153.9534 C.3     1  UNL1        0.0758
     17 O         140.8043  149.6189  151.9668 O.3     1  UNL1       -0.4790
     18 C         141.7941  150.7208  152.2033 C.ar    1  UNL1        0.1393
     19 C         143.2574  150.4743  151.9843 C.ar    1  UNL1        0.0378
     20 C         144.2473  151.5762  152.2208 C.ar    1  UNL1        0.0154
     21 C         143.7738  152.9247  152.6763 C.ar    1  UNL1        0.0684
     22 CL        144.7637  154.0266  152.9129 Cl      1  UNL1       -0.0814
     23 C         142.3105  153.1712  152.8953 C.ar    1  UNL1        0.0712
     24 CL        141.8370  154.5197  153.3508 Cl      1  UNL1       -0.0813
     25 C         141.3206  152.0693  152.6588 C.ar    1  UNL1        0.0491
     26 S         139.2330  141.7004  161.9206 S.O2    1  UNL1        0.0768
     27 O         140.5705  141.0788  161.6474 O.2     1  UNL1       -0.1498
     28 O         137.8955  142.3221  162.1938 O.2     1  UNL1       -0.1498
     29 C         138.2093  137.6182  166.1970 C.3     1  UNL1        0.0310
     30 C         138.4653  138.6388  165.1279 C.ar    1  UNL1       -0.0218
     31 C         138.3054  140.0990  165.4313 C.ar    1  UNL1       -0.0029
     32 C         138.5614  141.1196  164.3622 C.ar    1  UNL1        0.0199
     33 C         138.9771  140.6799  162.9897 C.ar    1  UNL1        0.1253
     34 C         139.1369  139.2196  162.6863 C.ar    1  UNL1        0.0199
     35 C         138.8810  138.1991  163.7554 C.ar    1  UNL1       -0.0029
@<TRIPOS>BOND
     1    29    30    1
     2    30    31   ar
     3    31    32   ar
     4    32    33   ar
     5    33    26    1
     6    26    27    2
     7    26    28    2
     8    26     1    1
     9     1     2   am
    10     2     3    2
    11     2     4   am
    12     4     5    1
    13     5     6    1
    14     6     7    1
    15     7    11    1
    16    11    12    1
    17    12    13    1
    18    13    14    1
    19    14    17    1
    20    17    18    1
    21    18    19   ar
    22    19    20   ar
    23    20    21   ar
    24    21    22    1
    25    21    23   ar
    26    23    24    1
    27    23    25   ar
    28    14    15    1
    29    15    16    1
    30     7     8    1
    31     8     9    1
    32    33    34   ar
    33    34    35   ar
    34    35    30   ar
    35     9     4    1
    36    16    11    1
    37    25    18   ar
    38     1    10    1
@<TRIPOS>MOLECULE
*****
 35 38 0 0 0
SMALL
GASTEIGER

@<TRIPOS>ATOM
      1 N         140.4547  143.3915  163.3025 N.am    1  UNL1       -0.1691
      2 C         139.7546  142.8003  162.1150 C.2     1  UNL1        0.3226
      3 O         138.9045  141.5752  162.2787 O.2     1  UNL1       -0.2510
      4 N         139.9044  143.4341  160.7638 N.am    1  UNL1       -0.2629
      5 C         140.7544  144.6591  160.6001 C.3     1  UNL1        0.0964
      6 C         140.9043  145.2929  159.2488 C.3     1  UNL1        0.0376
      7 C         140.2041  144.7017  158.0613 C.3     1  UNL1        0.0609
      8 C         139.3541  143.4767  158.2250 C.3     1  UNL1        0.0376
      9 C         139.2042  142.8428  159.5762 C.3     1  UNL1        0.0964
     10 H         141.0126  144.1955  163.1951 H       1  UNL1        0.1781
     11 N         140.3540  145.3355  156.7101 N.3     1  UNL1       -0.2736
     12 C         139.4640  146.4760  156.3137 C.3     1  UNL1        0.0758
     13 C         139.6138  147.1098  154.9625 C.3     1  UNL1        0.0609
     14 C         140.6537  146.6031  154.0076 C.3     1  UNL1        0.1687
     15 C         141.5438  145.4626  154.4039 C.3     1  UNL1        0.0609
     16 C         141.3939  144.8288  155.7551 C.3     1  UNL1        0.0758
     17 O         140.8035  147.2369  152.6564 O.3     1  UNL1       -0.4790
     18 C         141.0582  148.7108  152.5434 C.ar    1  UNL1        0.1393
     19 C         139.9190  149.6797  152.6587 C.ar    1  UNL1        0.0378
     20 C         140.1736  151.1537  152.5456 C.ar    1  UNL1        0.0154
     21 C         141.5675  151.6586  152.3173 C.ar    1  UNL1        0.0684
     22 CL        141.8222  153.1325  152.2043 Cl      1  UNL1       -0.0814
     23 C         142.7068  150.6896  152.2021 C.ar    1  UNL1        0.0712
     24 CL        144.1006  151.1945  151.9738 Cl      1  UNL1       -0.0813
     25 C         142.4521  149.2157  152.3151 C.ar    1  UNL1        0.0491
     26 S         140.3049  142.7577  164.6538 S.O2    1  UNL1        0.0768
     27 O         139.1302  143.6455  164.9399 O.2     1  UNL1       -0.1498
     28 O         141.4796  141.8699  164.3676 O.2     1  UNL1       -0.1498
     29 C         139.7055  140.2225  170.0587 C.3     1  UNL1        0.0310
     30 C         139.8553  140.8563  168.7075 C.ar    1  UNL1       -0.0218
     31 C         139.4817  140.0893  167.4737 C.ar    1  UNL1       -0.0029
     32 C         139.6315  140.7231  166.1225 C.ar    1  UNL1        0.0199
     33 C         140.1550  142.1239  166.0050 C.ar    1  UNL1        0.1253
     34 C         140.5287  142.8908  167.2387 C.ar    1  UNL1        0.0199
     35 C         140.3788  142.2570  168.5900 C.ar    1  UNL1       -0.0029
@<TRIPOS>BOND
     1    29    30    1
     2    30    31   ar
     3    31    32   ar
     4    32    33   ar
     5    33    26    1
     6    26    27    2
     7    26    28    2
     8    26     1    1
     9     1     2   am
    10     2     3    2
    11     2     4   am
    12     4     5    1
    13     5     6    1
    14     6     7    1
    15     7    11    1
    16    11    12    1
    17    12    13    1
    18    13    14    1
    19    14    17    1
    20    17    18    1
    21    18    19   ar
    22    19    20   ar
    23    20    21   ar
    24    21    22    1
    25    21    23   ar
    26    23    24    1
    27    23    25   ar
    28    14    15    1
    29    15    16    1
    30     7     8    1
    31     8     9    1
    32    33    34   ar
    33    34    35   ar
    34    35    30   ar
    35     9     4    1
    36    16    11    1
    37    25    18   ar
    38     1    10    1
@<TRIPOS>MOLECULE
*****
 35 38 0 0 0
SMALL
GASTEIGER

@<TRIPOS>ATOM
      1 N         141.5284  137.1903  156.2734 N.am    1  UNL1       -0.1691
      2 C         141.8951  138.2300  155.2563 C.2     1  UNL1        0.3226
      3 O         142.7175  137.8519  154.0601 O.2     1  UNL1       -0.2510
      4 N         141.4395  139.6479  155.4353 N.am    1  UNL1       -0.2629
      5 C         140.6172  140.0261  156.6314 C.3     1  UNL1        0.0964
      6 C         140.1616  141.4439  156.8105 C.3     1  UNL1        0.0376
      7 C         140.5283  142.4836  155.7934 C.3     1  UNL1        0.0609
      8 C         141.3506  142.1055  154.5972 C.3     1  UNL1        0.0376
      9 C         141.8062  140.6876  154.4181 C.3     1  UNL1        0.0964
     10 H         140.9887  137.4385  157.0584 H       1  UNL1        0.1781
     11 N         140.0727  143.9015  155.9724 N.3     1  UNL1       -0.2736
     12 C         138.9005  144.4169  155.1913 C.3     1  UNL1        0.0758
     13 C         138.4449  145.8348  155.3703 C.3     1  UNL1        0.0609
     14 C         139.1615  146.7373  156.3305 C.3     1  UNL1        0.1687
     15 C         140.3337  146.2218  157.1118 C.3     1  UNL1        0.0609
     16 C         140.7893  144.8040  156.9327 C.3     1  UNL1        0.0758
     17 O         138.7059  148.1551  156.5096 O.3     1  UNL1       -0.4790
     18 C         138.9674  149.1683  155.4349 C.ar    1  UNL1        0.1393
     19 C         139.6623  148.7581  154.1705 C.ar    1  UNL1        0.0378
     20 C         139.9239  149.7713  153.0957 C.ar    1  UNL1        0.0154
     21 C         139.4906  151.1947  153.2855 C.ar    1  UNL1        0.0684
     22 CL        139.7522  152.2079  152.2108 Cl      1  UNL1       -0.0814
     23 C         138.7957  151.6050  154.5500 C.ar    1  UNL1        0.0712
     24 CL        138.3623  153.0284  154.7397 Cl      1  UNL1       -0.0813
     25 C         138.5341  150.5918  155.6246 C.ar    1  UNL1        0.0491
     26 S         141.9841  135.7724  156.0943 S.O2    1  UNL1        0.0768
     27 O         140.7287  135.4652  155.3330 O.2     1  UNL1       -0.1498
     28 O         143.2394  136.0797  156.8557 O.2     1  UNL1       -0.1498
     29 C         143.8065  130.1010  155.3781 C.3     1  UNL1        0.0310
     30 C         143.3509  131.5188  155.5572 C.ar    1  UNL1       -0.0218
     31 C         144.2934  132.5450  156.1125 C.ar    1  UNL1       -0.0029
     32 C         143.8378  133.9629  156.2915 C.ar    1  UNL1        0.0199
     33 C         142.4397  134.3546  155.9153 C.ar    1  UNL1        0.1253
     34 C         141.4971  133.3284  155.3600 C.ar    1  UNL1        0.0199
     35 C         141.9527  131.9105  155.1809 C.ar    1  UNL1       -0.0029
@<TRIPOS>BOND
     1    29    30    1
     2    30    31   ar
     3    31    32   ar
     4    32    33   ar
     5    33    26    1
     6    26    27    2
     7    26    28    2
     8    26     1    1
     9     1     2   am
    10     2     3    2
    11     2     4   am
    12     4     5    1
    13     5     6    1
    14     6     7    1
    15     7    11    1
    16    11    12    1
    17    12    13    1
    18    13    14    1
    19    14    17    1
    20    17    18    1
    21    18    19   ar
    22    19    20   ar
    23    20    21   ar
    24    21    22    1
    25    21    23   ar
    26    23    24    1
    27    23    25   ar
    28    14    15    1
    29    15    16    1
    30     7     8    1
    31     8     9    1
    32    33    34   ar
    33    34    35   ar
    34    35    30   ar
    35     9     4    1
    36    16    11    1
    37    25    18   ar
    38     1    10    1
@<TRIPOS>MOLECULE
*****
 35 38 0 0 0
SMALL
GASTEIGER

@<TRIPOS>ATOM
      1 N         143.1807  133.7825  156.8703 N.am    1  UNL1       -0.1691
      2 C         143.1738  135.0508  156.0695 C.2     1  UNL1        0.3226
      3 O         143.2858  134.9946  154.5747 O.2     1  UNL1       -0.2510
      4 N         143.0550  136.3753  156.7634 N.am    1  UNL1       -0.2629
      5 C         142.9430  136.4315  158.2581 C.3     1  UNL1        0.0964
      6 C         142.8241  137.7560  158.9521 C.3     1  UNL1        0.0376
      7 C         142.8173  139.0243  158.1513 C.3     1  UNL1        0.0609
      8 C         142.9292  138.9681  156.6564 C.3     1  UNL1        0.0376
      9 C         143.0481  137.6436  155.9625 C.3     1  UNL1        0.0964
     10 H         143.1072  133.8193  157.8513 H       1  UNL1        0.1781
     11 N         142.6984  140.3488  158.8452 N.3     1  UNL1       -0.2736
     12 C         141.3661  140.8107  159.3566 C.3     1  UNL1        0.0758
     13 C         141.2472  142.1352  160.0505 C.3     1  UNL1        0.0609
     14 C         142.4607  142.9978  160.2331 C.3     1  UNL1        0.1687
     15 C         143.7931  142.5359  159.7217 C.3     1  UNL1        0.0609
     16 C         143.9119  141.2114  159.0277 C.3     1  UNL1        0.0758
     17 O         142.3418  144.3223  160.9270 O.3     1  UNL1       -0.4790
     18 C         141.3790  144.4891  162.0650 C.ar    1  UNL1        0.1393
     19 C         140.1634  145.3521  161.8986 C.ar    1  UNL1        0.0378
     20 C         139.2005  145.5189  163.0366 C.ar    1  UNL1        0.0154
     21 C         139.4532  144.8227  164.3410 C.ar    1  UNL1        0.0684
     22 CL        138.4903  144.9894  165.4789 Cl      1  UNL1       -0.0814
     23 C         140.6688  143.9596  164.5073 C.ar    1  UNL1        0.0712
     24 CL        140.9214  143.2634  165.8117 Cl      1  UNL1       -0.0813
     25 C         141.6316  143.7929  163.3694 C.ar    1  UNL1        0.0491
     26 S         143.2996  132.4580  156.1763 S.O2    1  UNL1        0.0768
     27 O         141.8044  132.3621  156.1033 O.2     1  UNL1       -0.1498
     28 O         144.7947  132.5538  156.2494 O.2     1  UNL1       -0.1498
     29 C         143.7750  127.1599  153.4006 C.3     1  UNL1        0.0310
     30 C         143.6562  128.4844  154.0945 C.ar    1  UNL1       -0.0218
     31 C         144.8546  129.0921  154.7610 C.ar    1  UNL1       -0.0029
     32 C         144.7358  130.4166  155.4550 C.ar    1  UNL1        0.0199
     33 C         143.4184  131.1334  155.4824 C.ar    1  UNL1        0.1253
     34 C         142.2200  130.5257  154.8159 C.ar    1  UNL1        0.0199
     35 C         142.3388  129.2012  154.1219 C.ar    1  UNL1       -0.0029
@<TRIPOS>BOND
     1    29    30    1
     2    30    31   ar
     3    31    32   ar
     4    32    33   ar
     5    33    26    1
     6    26    27    2
     7    26    28    2
     8    26     1    1
     9     1     2   am
    10     2     3    2
    11     2     4   am
    12     4     5    1
    13     5     6    1
    14     6     7    1
    15     7    11    1
    16    11    12    1
    17    12    13    1
    18    13    14    1
    19    14    17    1
    20    17    18    1
    21    18    19   ar
    22    19    20   ar
    23    20    21   ar
    24    21    22    1
    25    21    23   ar
    26    23    24    1
    27    23    25   ar
    28    14    15    1
    29    15    16    1
    30     7     8    1
    31     8     9    1
    32    33    34   ar
    33    34    35   ar
    34    35    30   ar
    35     9     4    1
    36    16    11    1
    37    25    18   ar
    38     1    10    1
@<TRIPOS>MOLECULE
*****
 35 38 0 0 0
SMALL
GASTEIGER

@<TRIPOS>ATOM
      1 N         142.6700  141.8414  163.4306 N.am    1  UNL1       -0.1691
      2 C         142.4999  140.8652  162.3046 C.2     1  UNL1        0.3226
      3 O         141.6210  139.6624  162.4810 O.2     1  UNL1       -0.2510
      4 N         143.2086  141.0917  161.0021 N.am    1  UNL1       -0.2629
      5 C         144.0874  142.2944  160.8257 C.3     1  UNL1        0.0964
      6 C         144.7961  142.5209  159.5232 C.3     1  UNL1        0.0376
      7 C         144.6260  141.5447  158.3971 C.3     1  UNL1        0.0609
      8 C         143.7471  140.3419  158.5735 C.3     1  UNL1        0.0376
      9 C         143.0384  140.1154  159.8760 C.3     1  UNL1        0.0964
     10 H         143.2467  142.6308  163.3148 H       1  UNL1        0.1781
     11 N         145.3347  141.7712  157.0947 N.3     1  UNL1       -0.2736
     12 C         144.7436  141.2494  155.8186 C.3     1  UNL1        0.0758
     13 C         145.4523  141.4759  154.5161 C.3     1  UNL1        0.0609
     14 C         146.7521  142.2241  154.4897 C.3     1  UNL1        0.1687
     15 C         147.3432  142.7459  155.7658 C.3     1  UNL1        0.0609
     16 C         146.6345  142.5194  157.0683 C.3     1  UNL1        0.0758
     17 O         147.4608  142.4506  153.1872 O.3     1  UNL1       -0.4790
     18 C         148.9594  142.4978  153.1472 C.ar    1  UNL1        0.1393
     19 C         149.6650  143.8146  153.0125 C.ar    1  UNL1        0.0378
     20 C         151.1638  143.8618  152.9724 C.ar    1  UNL1        0.0154
     21 C         151.9569  142.5921  153.0670 C.ar    1  UNL1        0.0684
     22 CL        153.4556  142.6393  153.0269 Cl      1  UNL1       -0.0814
     23 C         151.2513  141.2753  153.2016 C.ar    1  UNL1        0.0712
     24 CL        152.0444  140.0056  153.2962 Cl      1  UNL1       -0.0813
     25 C         149.7526  141.2281  153.2417 C.ar    1  UNL1        0.0491
     26 S         141.9613  141.6149  164.7331 S.O2    1  UNL1        0.0768
     27 O         143.1390  140.8355  165.2384 O.2     1  UNL1       -0.1498
     28 O         140.7835  142.3943  164.2278 O.2     1  UNL1       -0.1498
     29 C         139.1265  140.7090  169.9430 C.3     1  UNL1        0.0310
     30 C         139.8352  140.9355  168.6405 C.ar    1  UNL1       -0.0218
     31 C         139.7314  139.9179  167.5434 C.ar    1  UNL1       -0.0029
     32 C         140.4401  140.1444  166.2409 C.ar    1  UNL1        0.0199
     33 C         141.2526  141.3884  166.0356 C.ar    1  UNL1        0.1253
     34 C         141.3563  142.4060  167.1327 C.ar    1  UNL1        0.0199
     35 C         140.6476  142.1795  168.4352 C.ar    1  UNL1       -0.0029
@<TRIPOS>BOND
     1    29    30    1
     2    30    31   ar
     3    31    32   ar
     4    32    33   ar
     5    33    26    1
     6    26    27    2
     7    26    28    2
     8    26     1    1
     9     1     2   am
    10     2     3    2
    11     2     4   am
    12     4     5    1
    13     5     6    1
    14     6     7    1
    15     7    11    1
    16    11    12    1
    17    12    13    1
    18    13    14    1
    19    14    17    1
    20    17    18    1
    21    18    19   ar
    22    19    20   ar
    23    20    21   ar
    24    21    22    1
    25    21    23   ar
    26    23    24    1
    27    23    25   ar
    28    14    15    1
    29    15    16    1
    30     7     8    1
    31     8     9    1
    32    33    34   ar
    33    34    35   ar
    34    35    30   ar
    35     9     4    1
    36    16    11    1
    37    25    18   ar
    38     1    10    1
@<TRIPOS>MOLECULE
*****
 35 38 0 0 0
SMALL
GASTEIGER

@<TRIPOS>ATOM
      1 N         142.1591  142.2795  163.7140 N.am    1  UNL1       -0.1691
      2 C         141.3948  143.5365  163.4214 C.2     1  UNL1        0.3226
      3 O         140.7571  144.3044  164.5411 O.2     1  UNL1       -0.2510
      4 N         141.2682  144.0257  162.0091 N.am    1  UNL1       -0.2629
      5 C         141.9059  143.2579  160.8893 C.3     1  UNL1        0.0964
      6 C         141.7792  143.7471  159.4770 C.3     1  UNL1        0.0376
      7 C         141.0149  145.0041  159.1844 C.3     1  UNL1        0.0609
      8 C         140.3771  145.7720  160.3042 C.3     1  UNL1        0.0376
      9 C         140.5038  145.2828  161.7165 C.3     1  UNL1        0.0964
     10 H         142.5777  141.7755  162.9791 H       1  UNL1        0.1781
     11 N         140.8883  145.4934  157.7721 N.3     1  UNL1       -0.2736
     12 C         139.7341  146.3684  157.3822 C.3     1  UNL1        0.0758
     13 C         139.6075  146.8577  155.9698 C.3     1  UNL1        0.0609
     14 C         140.6350  146.4718  154.9475 C.3     1  UNL1        0.1687
     15 C         141.7892  145.5967  155.3374 C.3     1  UNL1        0.0609
     16 C         141.9159  145.1074  156.7497 C.3     1  UNL1        0.0758
     17 O         140.5083  146.9610  153.5352 O.3     1  UNL1       -0.4790
     18 C         140.6256  148.4261  153.2356 C.ar    1  UNL1        0.1393
     19 C         141.6625  148.9129  152.2672 C.ar    1  UNL1        0.0378
     20 C         141.7797  150.3780  151.9675 C.ar    1  UNL1        0.0154
     21 C         140.8601  151.3563  152.6364 C.ar    1  UNL1        0.0684
     22 CL        140.9774  152.8213  152.3368 Cl      1  UNL1       -0.0814
     23 C         139.8232  150.8694  153.6048 C.ar    1  UNL1        0.0712
     24 CL        138.9036  151.8476  154.2736 Cl      1  UNL1       -0.0813
     25 C         139.7060  149.4043  153.9044 C.ar    1  UNL1        0.0491
     26 S         142.2858  141.7903  165.1263 S.O2    1  UNL1        0.0768
     27 O         143.6593  142.3874  165.2100 O.2     1  UNL1       -0.1498
     28 O         140.9123  141.1932  165.0426 O.2     1  UNL1       -0.1498
     29 C         142.7923  139.8334  170.7755 C.3     1  UNL1        0.0310
     30 C         142.6657  140.3226  169.3632 C.ar    1  UNL1       -0.0218
     31 C         142.6475  141.7952  169.0784 C.ar    1  UNL1       -0.0029
     32 C         142.5208  142.2844  167.6661 C.ar    1  UNL1        0.0199
     33 C         142.4124  141.3010  166.5386 C.ar    1  UNL1        0.1253
     34 C         142.4306  139.8285  166.8234 C.ar    1  UNL1        0.0199
     35 C         142.5573  139.3393  168.2358 C.ar    1  UNL1       -0.0029
@<TRIPOS>BOND
     1    29    30    1
     2    30    31   ar
     3    31    32   ar
     4    32    33   ar
     5    33    26    1
     6    26    27    2
     7    26    28    2
     8    26     1    1
     9     1     2   am
    10     2     3    2
    11     2     4   am
    12     4     5    1
    13     5     6    1
    14     6     7    1
    15     7    11    1
    16    11    12    1
    17    12    13    1
    18    13    14    1
    19    14    17    1
    20    17    18    1
    21    18    19   ar
    22    19    20   ar
    23    20    21   ar
    24    21    22    1
    25    21    23   ar
    26    23    24    1
    27    23    25   ar
    28    14    15    1
    29    15    16    1
    30     7     8    1
    31     8     9    1
    32    33    34   ar
    33    34    35   ar
    34    35    30   ar
    35     9     4    1
    36    16    11    1
    37    25    18   ar
    38     1    10    1
@<TRIPOS>MOLECULE
*****
 35 38 0 0 0
SMALL
GASTEIGER

@<TRIPOS>ATOM
      1 N         140.8216  143.4398  163.6796 N.am    1  UNL1       -0.1691
      2 C         140.8729  142.7546  162.3463 C.2     1  UNL1        0.3226
      3 O         141.0894  141.2721  162.2727 O.2     1  UNL1       -0.2510
      4 N         140.7079  143.5518  161.0865 N.am    1  UNL1       -0.2629
      5 C         140.4915  145.0343  161.1600 C.3     1  UNL1        0.0964
      6 C         140.3264  145.8316  159.9002 C.3     1  UNL1        0.0376
      7 C         140.3778  145.1464  158.5668 C.3     1  UNL1        0.0609
      8 C         140.5942  143.6638  158.4933 C.3     1  UNL1        0.0376
      9 C         140.7593  142.8666  159.7531 C.3     1  UNL1        0.0964
     10 H         140.6796  144.4128  163.7279 H       1  UNL1        0.1781
     11 N         140.2127  145.9436  157.3070 N.3     1  UNL1       -0.2736
     12 C         141.0627  145.6383  156.1095 C.3     1  UNL1        0.0758
     13 C         140.8977  146.4356  154.8496 C.3     1  UNL1        0.0609
     14 C         139.8826  147.5381  154.7874 C.3     1  UNL1        0.1687
     15 C         139.0326  147.8435  155.9850 C.3     1  UNL1        0.0609
     16 C         139.1976  147.0463  157.2448 C.3     1  UNL1        0.0758
     17 O         139.7176  148.3354  153.5276 O.3     1  UNL1       -0.4790
     18 C         140.1305  149.7770  153.4928 C.ar    1  UNL1        0.1393
     19 C         141.4121  150.1740  152.8222 C.ar    1  UNL1        0.0378
     20 C         141.8251  151.6157  152.7874 C.ar    1  UNL1        0.0154
     21 C         140.9564  152.6603  153.4232 C.ar    1  UNL1        0.0684
     22 CL        141.3693  154.1019  153.3884 Cl      1  UNL1       -0.0814
     23 C         139.6747  152.2631  154.0938 C.ar    1  UNL1        0.0712
     24 CL        138.8060  153.3077  154.7297 Cl      1  UNL1       -0.0813
     25 C         139.2618  150.8216  154.1286 C.ar    1  UNL1        0.0491
     26 S         140.9867  142.6425  164.9394 S.O2    1  UNL1        0.0768
     27 O         139.5057  142.4089  164.9856 O.2     1  UNL1       -0.1498
     28 O         142.4676  142.8761  164.8932 O.2     1  UNL1       -0.1498
     29 C         141.6469  139.4535  169.9787 C.3     1  UNL1        0.0310
     30 C         141.4818  140.2507  168.7189 C.ar    1  UNL1       -0.0218
     31 C         142.6253  141.0660  168.1920 C.ar    1  UNL1       -0.0029
     32 C         142.4603  141.8632  166.9322 C.ar    1  UNL1        0.0199
     33 C         141.1517  141.8453  166.1992 C.ar    1  UNL1        0.1253
     34 C         140.0082  141.0300  166.7261 C.ar    1  UNL1        0.0199
     35 C         140.1732  140.2328  167.9860 C.ar    1  UNL1       -0.0029
@<TRIPOS>BOND
     1    29    30    1
     2    30    31   ar
     3    31    32   ar
     4    32    33   ar
     5    33    26    1
     6    26    27    2
     7    26    28    2
     8    26     1    1
     9     1     2   am
    10     2     3    2
    11     2     4   am
    12     4     5    1
    13     5     6    1
    14     6     7    1
    15     7    11    1
    16    11    12    1
    17    12    13    1
    18    13    14    1
    19    14    17    1
    20    17    18    1
    21    18    19   ar
    22    19    20   ar
    23    20    21   ar
    24    21    22    1
    25    21    23   ar
    26    23    24    1
    27    23    25   ar
    28    14    15    1
    29    15    16    1
    30     7     8    1
    31     8     9    1
    32    33    34   ar
    33    34    35   ar
    34    35    30   ar
    35     9     4    1
    36    16    11    1
    37    25    18   ar
    38     1    10    1
