@<TRIPOS>MOLECULE
*****
 32 35 0 0 0
SMALL
GASTEIGER

@<TRIPOS>ATOM
      1 O         140.9925  136.6422  164.1881 O.2     1  UNL1       -0.2262
      2 C         140.5309  137.9501  163.6171 C.2     1  UNL1        0.4050
      3 N         141.3190  138.6120  162.5257 N.am    1  UNL1       -0.2425
      4 C         142.5687  137.9659  162.0055 C.3     1  UNL1        0.1181
      5 C         143.3568  138.6277  160.9143 C.3     1  UNL1        0.1124
      6 N         142.8951  139.9357  160.3432 N.pl3   1  UNL1       -0.3041
      7 C         141.6453  140.5818  160.8634 C.3     1  UNL1        0.1124
      8 C         140.8573  139.9199  161.9547 C.3     1  UNL1        0.1181
      9 C         143.6832  140.5975  159.2519 C.ar    1  UNL1        0.0481
     10 C         143.8656  139.9061  157.9334 C.ar    1  UNL1        0.0176
     11 C         144.6537  140.5679  156.8422 C.ar    1  UNL1        0.0385
     12 C         145.2594  141.9212  157.0695 C.ar    1  UNL1        0.1469
     13 C         145.0770  142.6127  158.3880 C.ar    1  UNL1        0.0385
     14 C         144.2889  141.9509  159.4792 C.ar    1  UNL1        0.0176
     15 O         146.0475  142.5831  155.9782 O.3     1  UNL1       -0.4045
     16 C         147.4443  142.1258  155.6787 C.3     1  UNL1        0.5753
     17 F         148.8413  141.6685  155.3792 F       1  UNL1       -0.1328
     18 F         147.9316  142.7951  156.9295 F       1  UNL1       -0.1328
     19 F         146.9571  141.4565  154.4279 F       1  UNL1       -0.1328
     20 O         139.2811  138.5962  164.1372 O.3     1  UNL1       -0.4323
     21 C         139.2122  139.0560  165.5635 C.3     1  UNL1        0.2364
     22 C         138.1410  138.5277  166.4708 C.3     1  UNL1        0.2540
     23 O         138.0721  138.9874  167.8969 O.3     1  UNL1       -0.4437
     24 C         139.0745  139.9754  168.4157 C.ar    1  UNL1        0.3060
     25 N         139.2560  140.6071  169.7641 N.ar    1  UNL1       -0.1275
     26 C         140.4395  141.5258  169.6900 C.ar    1  UNL1        0.3976
     27 C         140.9893  141.4619  168.2959 C.ar    1  UNL1        0.1780
     28 N         140.1457  140.5037  167.5083 N.ar    1  UNL1       -0.2712
     29 C         140.2146  140.0440  166.0822 C.3     1  UNL1        0.1582
     30 N         140.9785  142.3617  170.8129 N.pl3   1  UNL1        0.1030
     31 O         142.0497  143.3768  170.5450 O.2     1  UNL1        0.0432
     32 O         140.4461  142.1823  172.2038 O.co2   1  UNL1       -0.5746
@<TRIPOS>UNITY_ATOM_ATTR
30 1
charge 1
32 1
charge -1
@<TRIPOS>BOND
     1     1     2    2
     2     2    20    1
     3    21    20    1
     4    21    22    1
     5    22    23    1
     6    23    24    1
     7    24    25   ar
     8    25    26   ar
     9    26    30    1
    10    30    31    2
    11    30    32    1
    12    26    27   ar
    13    27    28   ar
    14    28    29    1
    15     2     3   am
    16     3     4    1
    17     4     5    1
    18     5     6    1
    19     6     9    1
    20     9    10   ar
    21    10    11   ar
    22    11    12   ar
    23    12    15    1
    24    15    16    1
    25    16    17    1
    26    16    18    1
    27    16    19    1
    28    12    13   ar
    29    13    14   ar
    30     6     7    1
    31     7     8    1
    32    29    21    1
    33     8     3    1
    34    28    24   ar
    35    14     9   ar
@<TRIPOS>MOLECULE
*****
 32 35 0 0 0
SMALL
GASTEIGER

@<TRIPOS>ATOM
      1 O         138.2400  139.7811  157.5387 O.2     1  UNL1       -0.2262
      2 C         139.4651  139.5073  158.3599 C.2     1  UNL1        0.4050
      3 N         139.3795  139.5072  159.8575 N.am    1  UNL1       -0.2425
      4 C         138.0689  139.7809  160.5339 C.3     1  UNL1        0.1181
      5 C         137.9834  139.7808  162.0314 C.3     1  UNL1        0.1124
      6 N         139.2085  139.5070  162.8526 N.pl3   1  UNL1       -0.3041
      7 C         140.5190  139.2333  162.1762 C.3     1  UNL1        0.1124
      8 C         140.6045  139.2334  160.6787 C.3     1  UNL1        0.1181
      9 C         139.1229  139.5069  164.3502 C.ar    1  UNL1        0.0481
     10 C         138.4758  138.3575  165.0643 C.ar    1  UNL1        0.0176
     11 C         138.3902  138.3575  166.5619 C.ar    1  UNL1        0.0385
     12 C         138.9518  139.5068  167.3452 C.ar    1  UNL1        0.1469
     13 C         139.5990  140.6562  166.6310 C.ar    1  UNL1        0.0385
     14 C         139.6845  140.6562  165.1335 C.ar    1  UNL1        0.0176
     15 O         138.8663  139.5067  168.8428 O.3     1  UNL1       -0.4045
     16 C         139.8006  140.3607  169.6475 C.3     1  UNL1        0.5753
     17 F         140.7350  141.2149  170.4522 F       1  UNL1       -0.1328
     18 F         138.6644  141.2759  169.9956 F       1  UNL1       -0.1328
     19 F         140.9369  139.4456  169.2993 F       1  UNL1       -0.1328
     20 O         140.7756  139.2336  157.6835 O.3     1  UNL1       -0.4323
     21 C         141.0096  137.9153  157.0070 C.3     1  UNL1        0.2364
     22 C         140.0461  137.4244  155.9675 C.3     1  UNL1        0.2540
     23 O         140.2802  136.1062  155.2910 O.3     1  UNL1       -0.4437
     24 C         141.4776  135.2790  155.6541 C.ar    1  UNL1        0.3060
     25 N         141.9659  133.9493  155.1607 N.ar    1  UNL1       -0.1275
     26 C         143.2311  133.6184  155.8953 C.ar    1  UNL1        0.3976
     27 C         143.5248  134.7437  156.8427 C.ar    1  UNL1        0.1780
     28 N         142.4411  135.7700  156.6936 N.ar    1  UNL1       -0.2712
     29 C         142.2071  137.0882  157.3700 C.3     1  UNL1        0.1582
     30 N         144.0577  132.3798  155.7143 N.pl3   1  UNL1        0.1030
     31 O         145.2118  132.1075  156.6329 O.2     1  UNL1        0.0432
     32 O         143.7299  131.4135  154.6149 O.co2   1  UNL1       -0.5746
@<TRIPOS>UNITY_ATOM_ATTR
30 1
charge 1
32 1
charge -1
@<TRIPOS>BOND
     1     1     2    2
     2     2    20    1
     3    21    20    1
     4    21    22    1
     5    22    23    1
     6    23    24    1
     7    24    25   ar
     8    25    26   ar
     9    26    30    1
    10    30    31    2
    11    30    32    1
    12    26    27   ar
    13    27    28   ar
    14    28    29    1
    15     2     3   am
    16     3     4    1
    17     4     5    1
    18     5     6    1
    19     6     9    1
    20     9    10   ar
    21    10    11   ar
    22    11    12   ar
    23    12    15    1
    24    15    16    1
    25    16    17    1
    26    16    18    1
    27    16    19    1
    28    12    13   ar
    29    13    14   ar
    30     6     7    1
    31     7     8    1
    32    29    21    1
    33     8     3    1
    34    28    24   ar
    35    14     9   ar
@<TRIPOS>MOLECULE
*****
 32 35 0 0 0
SMALL
GASTEIGER

@<TRIPOS>ATOM
      1 O         137.1678  140.9859  163.0364 O.2     1  UNL1       -0.2262
      2 C         138.4369  140.1878  162.9859 C.2     1  UNL1        0.4050
      3 N         139.4790  140.5006  161.9533 N.am    1  UNL1       -0.2425
      4 C         139.2520  141.6113  160.9711 C.3     1  UNL1        0.1181
      5 C         140.2940  141.9240  159.9385 C.3     1  UNL1        0.1124
      6 N         141.5631  141.1259  159.8881 N.pl3   1  UNL1       -0.3041
      7 C         141.7901  140.0152  160.8702 C.3     1  UNL1        0.1124
      8 C         140.7481  139.7025  161.9028 C.3     1  UNL1        0.1181
      9 C         142.6052  141.4387  158.8554 C.ar    1  UNL1        0.0481
     10 C         142.5602  142.7427  158.1155 C.ar    1  UNL1        0.0176
     11 C         143.6023  143.0553  157.0829 C.ar    1  UNL1        0.0385
     12 C         144.6893  142.0640  156.7902 C.ar    1  UNL1        0.1469
     13 C         144.7343  140.7600  157.5302 C.ar    1  UNL1        0.0385
     14 C         143.6922  140.4474  158.5628 C.ar    1  UNL1        0.0176
     15 O         145.7314  142.3768  155.7576 O.3     1  UNL1       -0.4045
     16 C         147.1836  142.1693  156.0707 C.3     1  UNL1        0.5753
     17 F         148.6358  141.9617  156.3838 F       1  UNL1       -0.1328
     18 F         147.2833  141.1769  154.9504 F       1  UNL1       -0.1328
     19 F         147.0838  143.1616  157.1910 F       1  UNL1       -0.1328
     20 O         138.6639  139.0771  163.9681 O.3     1  UNL1       -0.4323
     21 C         138.7782  139.3823  165.4323 C.3     1  UNL1        0.2364
     22 C         138.0445  138.5400  166.4335 C.3     1  UNL1        0.2540
     23 O         138.1588  138.8452  167.8976 O.3     1  UNL1       -0.4437
     24 C         139.0067  139.9927  168.3606 C.ar    1  UNL1        0.3060
     25 N         139.3083  140.5301  169.7282 N.ar    1  UNL1       -0.1275
     26 C         140.2284  141.7044  169.5723 C.ar    1  UNL1        0.3976
     27 C         140.4954  141.8928  168.1083 C.ar    1  UNL1        0.1780
     28 N         139.7404  140.8349  167.3595 N.ar    1  UNL1       -0.2712
     29 C         139.6261  140.5297  165.8953 C.3     1  UNL1        0.1582
     30 N         140.7839  142.5431  170.6849 N.pl3   1  UNL1        0.1030
     31 O         140.5843  142.1244  172.1114 O.2     1  UNL1        0.0432
     32 O         141.5390  143.8006  170.3711 O.co2   1  UNL1       -0.5746
@<TRIPOS>UNITY_ATOM_ATTR
30 1
charge 1
32 1
charge -1
@<TRIPOS>BOND
     1     1     2    2
     2     2    20    1
     3    21    20    1
     4    21    22    1
     5    22    23    1
     6    23    24    1
     7    24    25   ar
     8    25    26   ar
     9    26    30    1
    10    30    31    2
    11    30    32    1
    12    26    27   ar
    13    27    28   ar
    14    28    29    1
    15     2     3   am
    16     3     4    1
    17     4     5    1
    18     5     6    1
    19     6     9    1
    20     9    10   ar
    21    10    11   ar
    22    11    12   ar
    23    12    15    1
    24    15    16    1
    25    16    17    1
    26    16    18    1
    27    16    19    1
    28    12    13   ar
    29    13    14   ar
    30     6     7    1
    31     7     8    1
    32    29    21    1
    33     8     3    1
    34    28    24   ar
    35    14     9   ar
@<TRIPOS>MOLECULE
*****
 32 35 0 0 0
SMALL
GASTEIGER

@<TRIPOS>ATOM
      1 O         140.3324  139.3777  158.1803 O.2     1  UNL1       -0.2262
      2 C         139.0638  139.6717  158.9247 C.2     1  UNL1        0.4050
      3 N         139.0625  139.6953  160.4246 N.am    1  UNL1       -0.2425
      4 C         140.3299  139.4251  161.1800 C.3     1  UNL1        0.1181
      5 C         140.3286  139.4488  162.6797 C.3     1  UNL1        0.1124
      6 N         139.0600  139.7427  163.4241 N.pl3   1  UNL1       -0.3041
      7 C         137.7926  140.0130  162.6687 C.3     1  UNL1        0.1124
      8 C         137.7939  139.9893  161.1689 C.3     1  UNL1        0.1181
      9 C         139.0587  139.7664  164.9240 C.ar    1  UNL1        0.0481
     10 C         140.0099  140.6622  165.6607 C.ar    1  UNL1        0.0176
     11 C         140.0086  140.6859  167.1605 C.ar    1  UNL1        0.0385
     12 C         139.0562  139.8137  167.9235 C.ar    1  UNL1        0.1469
     13 C         138.1051  138.9178  167.1868 C.ar    1  UNL1        0.0385
     14 C         138.1064  138.8942  165.6870 C.ar    1  UNL1        0.0176
     15 O         139.0550  139.8373  169.4234 O.3     1  UNL1       -0.4045
     16 C         140.1207  140.5910  170.1625 C.3     1  UNL1        0.5753
     17 F         141.1864  141.3447  170.9016 F       1  UNL1       -0.1328
     18 F         139.2127  141.7811  170.2581 F       1  UNL1       -0.1328
     19 F         141.0286  139.4009  170.0669 F       1  UNL1       -0.1328
     20 O         137.7964  139.9419  158.1693 O.3     1  UNL1       -0.4323
     21 C         137.6619  141.1935  157.3534 C.3     1  UNL1        0.2364
     22 C         136.4759  141.3785  156.4539 C.3     1  UNL1        0.2540
     23 O         136.3414  142.6300  155.6381 O.3     1  UNL1       -0.4437
     24 C         137.3930  143.6965  155.7218 C.ar    1  UNL1        0.3060
     25 N         137.5300  145.0265  155.0417 N.ar    1  UNL1       -0.1275
     26 C         138.8006  145.6634  155.5210 C.ar    1  UNL1        0.3976
     27 C         139.4489  144.7270  156.4972 C.ar    1  UNL1        0.1780
     28 N         138.5789  143.5114  156.6213 N.ar    1  UNL1       -0.2712
     29 C         138.7134  142.2599  157.4371 C.3     1  UNL1        0.1582
     30 N         139.3301  147.0017  155.0983 N.pl3   1  UNL1        0.1030
     31 O         138.8141  148.2516  155.7476 O.2     1  UNL1        0.0432
     32 O         140.3757  147.0901  154.0264 O.co2   1  UNL1       -0.5746
@<TRIPOS>UNITY_ATOM_ATTR
30 1
charge 1
32 1
charge -1
@<TRIPOS>BOND
     1     1     2    2
     2     2    20    1
     3    21    20    1
     4    21    22    1
     5    22    23    1
     6    23    24    1
     7    24    25   ar
     8    25    26   ar
     9    26    30    1
    10    30    31    2
    11    30    32    1
    12    26    27   ar
    13    27    28   ar
    14    28    29    1
    15     2     3   am
    16     3     4    1
    17     4     5    1
    18     5     6    1
    19     6     9    1
    20     9    10   ar
    21    10    11   ar
    22    11    12   ar
    23    12    15    1
    24    15    16    1
    25    16    17    1
    26    16    18    1
    27    16    19    1
    28    12    13   ar
    29    13    14   ar
    30     6     7    1
    31     7     8    1
    32    29    21    1
    33     8     3    1
    34    28    24   ar
    35    14     9   ar
@<TRIPOS>MOLECULE
*****
 32 35 0 0 0
SMALL
GASTEIGER

@<TRIPOS>ATOM
      1 O         137.6873  140.2076  158.3951 O.2     1  UNL1       -0.2262
      2 C         139.0059  140.2569  159.1084 C.2     1  UNL1        0.4050
      3 N         139.0511  140.1935  160.6064 N.am    1  UNL1       -0.2425
      4 C         137.7777  140.0808  161.3911 C.3     1  UNL1        0.1181
      5 C         137.8229  140.0174  162.8890 C.3     1  UNL1        0.1124
      6 N         139.1415  140.0667  163.6023 N.pl3   1  UNL1       -0.3041
      7 C         140.4149  140.1794  162.8177 C.3     1  UNL1        0.1124
      8 C         140.3697  140.2428  161.3198 C.3     1  UNL1        0.1181
      9 C         139.1867  140.0033  165.1004 C.ar    1  UNL1        0.0481
     10 C         140.2543  140.7431  165.8505 C.ar    1  UNL1        0.0176
     11 C         140.2995  140.6797  167.3484 C.ar    1  UNL1        0.0385
     12 C         139.2769  139.8765  168.0962 C.ar    1  UNL1        0.1469
     13 C         138.2092  139.1367  167.3461 C.ar    1  UNL1        0.0385
     14 C         138.1641  139.2001  165.8482 C.ar    1  UNL1        0.0176
     15 O         139.3221  139.8131  169.5943 O.3     1  UNL1       -0.4045
     16 C         140.5009  140.3734  170.3335 C.3     1  UNL1        0.5753
     17 F         141.6797  140.9338  171.0727 F       1  UNL1       -0.1328
     18 F         139.7781  141.6775  170.4976 F       1  UNL1       -0.1328
     19 F         141.2236  139.0693  170.1693 F       1  UNL1       -0.1328
     20 O         140.2793  140.3696  158.3238 O.3     1  UNL1       -0.4323
     21 C         141.0534  139.1347  157.9689 C.3     1  UNL1        0.2364
     22 C         142.3670  138.8551  158.6369 C.3     1  UNL1        0.2540
     23 O         143.1410  137.6202  158.2820 O.3     1  UNL1       -0.4437
     24 C         142.6015  136.6650  157.2590 C.ar    1  UNL1        0.3060
     25 N         143.1362  135.3760  156.7088 N.ar    1  UNL1       -0.1275
     26 C         142.1531  134.8591  155.7008 C.ar    1  UNL1        0.3976
     27 C         141.0108  135.8285  155.6279 C.ar    1  UNL1        0.1780
     28 N         141.2879  136.9447  156.5909 N.ar    1  UNL1       -0.2712
     29 C         140.5139  138.1795  156.9459 C.3     1  UNL1        0.1582
     30 N         142.2885  133.5946  154.9052 N.pl3   1  UNL1        0.1030
     31 O         141.1587  133.1323  154.0336 O.2     1  UNL1        0.0432
     32 O         143.5537  132.7925  154.9813 O.co2   1  UNL1       -0.5746
@<TRIPOS>UNITY_ATOM_ATTR
30 1
charge 1
32 1
charge -1
@<TRIPOS>BOND
     1     1     2    2
     2     2    20    1
     3    21    20    1
     4    21    22    1
     5    22    23    1
     6    23    24    1
     7    24    25   ar
     8    25    26   ar
     9    26    30    1
    10    30    31    2
    11    30    32    1
    12    26    27   ar
    13    27    28   ar
    14    28    29    1
    15     2     3   am
    16     3     4    1
    17     4     5    1
    18     5     6    1
    19     6     9    1
    20     9    10   ar
    21    10    11   ar
    22    11    12   ar
    23    12    15    1
    24    15    16    1
    25    16    17    1
    26    16    18    1
    27    16    19    1
    28    12    13   ar
    29    13    14   ar
    30     6     7    1
    31     7     8    1
    32    29    21    1
    33     8     3    1
    34    28    24   ar
    35    14     9   ar
@<TRIPOS>MOLECULE
*****
 32 35 0 0 0
SMALL
GASTEIGER

@<TRIPOS>ATOM
      1 O         145.9928  141.4472  163.0703 O.2     1  UNL1       -0.2262
      2 C         144.8872  142.4360  163.2937 C.2     1  UNL1        0.4050
      3 N         144.0733  142.9260  162.1328 N.am    1  UNL1       -0.2425
      4 C         144.3650  142.4271  160.7486 C.3     1  UNL1        0.1181
      5 C         143.5511  142.9171  159.5879 C.3     1  UNL1        0.1124
      6 N         142.4455  143.9059  159.8113 N.pl3   1  UNL1       -0.3041
      7 C         142.1539  144.4048  161.1954 C.3     1  UNL1        0.1124
      8 C         142.9678  143.9148  162.3562 C.3     1  UNL1        0.1181
      9 C         141.6316  144.3959  158.6504 C.ar    1  UNL1        0.0481
     10 C         140.3410  143.7169  158.2996 C.ar    1  UNL1        0.0176
     11 C         139.5271  144.2069  157.1388 C.ar    1  UNL1        0.0385
     12 C         140.0040  145.3759  156.3287 C.ar    1  UNL1        0.1469
     13 C         141.2946  146.0549  156.6796 C.ar    1  UNL1        0.0385
     14 C         142.1084  145.5649  157.8404 C.ar    1  UNL1        0.0176
     15 O         139.1901  145.8658  155.1679 O.3     1  UNL1       -0.4045
     16 C         139.3050  147.2929  154.7205 C.3     1  UNL1        0.5753
     17 F         139.4199  148.7201  154.2731 F       1  UNL1       -0.1328
     18 F         140.1634  146.8626  153.5682 F       1  UNL1       -0.1328
     19 F         138.4465  147.7233  155.8728 F       1  UNL1       -0.1328
     20 O         144.5956  142.9349  164.6779 O.3     1  UNL1       -0.4323
     21 C         143.6092  142.2093  165.5443 C.3     1  UNL1        0.2364
     22 C         142.7944  141.0861  164.9746 C.3     1  UNL1        0.2540
     23 O         141.8081  140.3606  165.8410 O.3     1  UNL1       -0.4437
     24 C         141.6365  140.7582  167.2771 C.ar    1  UNL1        0.3060
     25 N         140.7489  140.2310  168.3654 N.ar    1  UNL1       -0.1275
     26 C         141.0151  141.0284  169.6077 C.ar    1  UNL1        0.3976
     27 C         142.0673  142.0484  169.2872 C.ar    1  UNL1        0.1780
     28 N         142.4513  141.8814  167.8468 N.ar    1  UNL1       -0.2712
     29 C         143.4376  142.6069  166.9804 C.3     1  UNL1        0.1582
     30 N         140.3466  140.8391  170.9371 N.pl3   1  UNL1        0.1030
     31 O         140.4737  141.8925  171.9973 O.2     1  UNL1        0.0432
     32 O         139.5509  139.5963  171.2063 O.co2   1  UNL1       -0.5746
@<TRIPOS>UNITY_ATOM_ATTR
30 1
charge 1
32 1
charge -1
@<TRIPOS>BOND
     1     1     2    2
     2     2    20    1
     3    21    20    1
     4    21    22    1
     5    22    23    1
     6    23    24    1
     7    24    25   ar
     8    25    26   ar
     9    26    30    1
    10    30    31    2
    11    30    32    1
    12    26    27   ar
    13    27    28   ar
    14    28    29    1
    15     2     3   am
    16     3     4    1
    17     4     5    1
    18     5     6    1
    19     6     9    1
    20     9    10   ar
    21    10    11   ar
    22    11    12   ar
    23    12    15    1
    24    15    16    1
    25    16    17    1
    26    16    18    1
    27    16    19    1
    28    12    13   ar
    29    13    14   ar
    30     6     7    1
    31     7     8    1
    32    29    21    1
    33     8     3    1
    34    28    24   ar
    35    14     9   ar
@<TRIPOS>MOLECULE
*****
 32 35 0 0 0
SMALL
GASTEIGER

@<TRIPOS>ATOM
      1 O         144.0668  139.4876  158.8557 O.2     1  UNL1       -0.2262
      2 C         142.6501  139.3017  159.3122 C.2     1  UNL1        0.4050
      3 N         142.3122  139.4055  160.7700 N.am    1  UNL1       -0.2425
      4 C         143.3910  139.6951  161.7712 C.3     1  UNL1        0.1181
      5 C         143.0531  139.7989  163.2289 C.3     1  UNL1        0.1124
      6 N         141.6364  139.6130  163.6855 N.pl3   1  UNL1       -0.3041
      7 C         140.5576  139.3233  162.6843 C.3     1  UNL1        0.1124
      8 C         140.8956  139.2195  161.2266 C.3     1  UNL1        0.1181
      9 C         141.2985  139.7167  165.1433 C.ar    1  UNL1        0.0481
     10 C         139.8666  139.8317  165.5749 C.ar    1  UNL1        0.0176
     11 C         139.5287  139.9355  167.0327 C.ar    1  UNL1        0.0385
     12 C         140.6228  139.9242  168.0588 C.ar    1  UNL1        0.1469
     13 C         142.0547  139.8092  167.6271 C.ar    1  UNL1        0.0385
     14 C         142.3926  139.7054  166.1694 C.ar    1  UNL1        0.0176
     15 O         140.2849  140.0280  169.5166 O.3     1  UNL1       -0.4045
     16 C         139.6905  141.2932  170.0605 C.3     1  UNL1        0.5753
     17 F         139.0959  142.5584  170.6044 F       1  UNL1       -0.1328
     18 F         138.3445  140.6340  170.1227 F       1  UNL1       -0.1328
     19 F         141.0364  141.9523  169.9983 F       1  UNL1       -0.1328
     20 O         141.5714  139.0120  158.3111 O.3     1  UNL1       -0.4323
     21 C         141.6327  137.7630  157.4826 C.3     1  UNL1        0.2364
     22 C         140.5764  137.4938  156.4523 C.3     1  UNL1        0.2540
     23 O         140.6378  136.2448  155.6239 O.3     1  UNL1       -0.4437
     24 C         141.7555  135.2651  155.8259 C.ar    1  UNL1        0.3060
     25 N         142.0764  133.9580  155.1634 N.ar    1  UNL1       -0.1275
     26 C         143.3311  133.4195  155.7845 C.ar    1  UNL1        0.3976
     27 C         143.7856  134.3936  156.8306 C.ar    1  UNL1        0.1780
     28 N         142.8118  135.5343  156.8562 N.ar    1  UNL1       -0.2712
     29 C         142.7504  136.7832  157.6846 C.3     1  UNL1        0.1582
     30 N         144.0119  132.1327  155.4228 N.pl3   1  UNL1        0.1030
     31 O         145.2985  131.7508  156.0927 O.2     1  UNL1        0.0432
     32 O         143.4060  131.2278  154.3912 O.co2   1  UNL1       -0.5746
@<TRIPOS>UNITY_ATOM_ATTR
30 1
charge 1
32 1
charge -1
@<TRIPOS>BOND
     1     1     2    2
     2     2    20    1
     3    21    20    1
     4    21    22    1
     5    22    23    1
     6    23    24    1
     7    24    25   ar
     8    25    26   ar
     9    26    30    1
    10    30    31    2
    11    30    32    1
    12    26    27   ar
    13    27    28   ar
    14    28    29    1
    15     2     3   am
    16     3     4    1
    17     4     5    1
    18     5     6    1
    19     6     9    1
    20     9    10   ar
    21    10    11   ar
    22    11    12   ar
    23    12    15    1
    24    15    16    1
    25    16    17    1
    26    16    18    1
    27    16    19    1
    28    12    13   ar
    29    13    14   ar
    30     6     7    1
    31     7     8    1
    32    29    21    1
    33     8     3    1
    34    28    24   ar
    35    14     9   ar
@<TRIPOS>MOLECULE
*****
 32 35 0 0 0
SMALL
GASTEIGER

@<TRIPOS>ATOM
      1 O         144.1393  139.4350  157.2659 O.2     1  UNL1       -0.2262
      2 C         142.9253  138.8696  157.9416 C.2     1  UNL1        0.4050
      3 N         142.7801  138.9716  159.4311 N.am    1  UNL1       -0.2425
      4 C         143.8489  139.6390  160.2449 C.3     1  UNL1        0.1181
      5 C         143.7036  139.7409  161.7343 C.3     1  UNL1        0.1124
      6 N         142.4896  139.1755  162.4099 N.pl3   1  UNL1       -0.3041
      7 C         141.4209  138.5081  161.5962 C.3     1  UNL1        0.1124
      8 C         141.5661  138.4061  160.1067 C.3     1  UNL1        0.1181
      9 C         142.3444  139.2775  163.8995 C.ar    1  UNL1        0.0481
     10 C         141.0961  139.8598  164.4932 C.ar    1  UNL1        0.0176
     11 C         140.9509  139.9617  165.9826 C.ar    1  UNL1        0.0385
     12 C         142.0541  139.4815  166.8783 C.ar    1  UNL1        0.1469
     13 C         143.3024  138.8992  166.2846 C.ar    1  UNL1        0.0385
     14 C         143.4476  138.7972  164.7952 C.ar    1  UNL1        0.0176
     15 O         141.9089  139.5835  168.3679 O.3     1  UNL1       -0.4045
     16 C         142.8232  140.4782  169.1510 C.3     1  UNL1        0.5753
     17 F         143.7376  141.3730  169.9342 F       1  UNL1       -0.1328
     18 F         142.7166  141.5238  168.0809 F       1  UNL1       -0.1328
     19 F         142.9298  139.4326  170.2212 F       1  UNL1       -0.1328
     20 O         141.8566  138.2022  157.1278 O.3     1  UNL1       -0.4323
     21 C         141.9947  136.7574  156.7488 C.3     1  UNL1        0.2364
     22 C         141.0913  136.1653  155.7080 C.3     1  UNL1        0.2540
     23 O         141.2294  134.7206  155.3291 O.3     1  UNL1       -0.4437
     24 C         142.2711  133.8679  155.9909 C.ar    1  UNL1        0.3060
     25 N         142.6396  132.4234  155.8245 N.ar    1  UNL1       -0.1275
     26 C         143.7709  132.1228  156.7625 C.ar    1  UNL1        0.3976
     27 C         144.1014  133.3814  157.5086 C.ar    1  UNL1        0.1780
     28 N         143.1745  134.4600  157.0316 N.ar    1  UNL1       -0.2712
     29 C         143.0363  135.9047  157.4106 C.3     1  UNL1        0.1582
     30 N         144.4521  130.7963  156.9259 N.pl3   1  UNL1        0.1030
     31 O         144.6723  129.9143  155.7327 O.2     1  UNL1        0.0432
     32 O         144.9130  130.3519  158.2823 O.co2   1  UNL1       -0.5746
@<TRIPOS>UNITY_ATOM_ATTR
30 1
charge 1
32 1
charge -1
@<TRIPOS>BOND
     1     1     2    2
     2     2    20    1
     3    21    20    1
     4    21    22    1
     5    22    23    1
     6    23    24    1
     7    24    25   ar
     8    25    26   ar
     9    26    30    1
    10    30    31    2
    11    30    32    1
    12    26    27   ar
    13    27    28   ar
    14    28    29    1
    15     2     3   am
    16     3     4    1
    17     4     5    1
    18     5     6    1
    19     6     9    1
    20     9    10   ar
    21    10    11   ar
    22    11    12   ar
    23    12    15    1
    24    15    16    1
    25    16    17    1
    26    16    18    1
    27    16    19    1
    28    12    13   ar
    29    13    14   ar
    30     6     7    1
    31     7     8    1
    32    29    21    1
    33     8     3    1
    34    28    24   ar
    35    14     9   ar
@<TRIPOS>MOLECULE
*****
 32 35 0 0 0
SMALL
GASTEIGER

@<TRIPOS>ATOM
      1 O         137.8546  141.2279  158.2339 O.2     1  UNL1       -0.2262
      2 C         138.5344  140.0778  158.9159 C.2     1  UNL1        0.4050
      3 N         138.6154  140.0354  160.4132 N.am    1  UNL1       -0.2425
      4 C         138.0166  141.1431  161.2283 C.3     1  UNL1        0.1181
      5 C         138.0976  141.1006  162.7255 C.3     1  UNL1        0.1124
      6 N         138.7774  139.9506  163.4075 N.pl3   1  UNL1       -0.3041
      7 C         139.3762  138.8429  162.5924 C.3     1  UNL1        0.1124
      8 C         139.2952  138.8853  161.0952 C.3     1  UNL1        0.1181
      9 C         138.8584  139.9082  164.9048 C.ar    1  UNL1        0.0481
     10 C         138.0606  138.8949  165.6707 C.ar    1  UNL1        0.0176
     11 C         138.1416  138.8525  167.1678 C.ar    1  UNL1        0.0385
     12 C         139.0204  139.8235  167.8992 C.ar    1  UNL1        0.1469
     13 C         139.8183  140.8368  167.1333 C.ar    1  UNL1        0.0385
     14 C         139.7373  140.8791  165.6361 C.ar    1  UNL1        0.0176
     15 O         139.1014  139.7811  169.3964 O.3     1  UNL1       -0.4045
     16 C         140.2282  140.4712  170.1064 C.3     1  UNL1        0.5753
     17 F         141.3550  141.1613  170.8164 F       1  UNL1       -0.1328
     18 F         139.3469  141.6604  170.3491 F       1  UNL1       -0.1328
     19 F         141.1095  139.2819  169.8637 F       1  UNL1       -0.1328
     20 O         139.1332  138.9701  158.1008 O.3     1  UNL1       -0.4323
     21 C         140.5721  139.0401  157.6825 C.3     1  UNL1        0.2364
     22 C         141.2776  137.8025  157.2128 C.3     1  UNL1        0.2540
     23 O         142.7163  137.8725  156.7945 O.3     1  UNL1       -0.4437
     24 C         143.4496  139.1801  156.8461 C.ar    1  UNL1        0.3060
     25 N         144.8604  139.5540  156.4995 N.ar    1  UNL1       -0.1275
     26 C         145.0267  141.0226  156.7551 C.ar    1  UNL1        0.3976
     27 C         143.7188  141.5564  157.2597 C.ar    1  UNL1        0.1780
     28 N         142.7441  140.4176  157.3158 N.ar    1  UNL1       -0.2712
     29 C         141.3053  140.3476  157.7341 C.3     1  UNL1        0.1582
     30 N         146.2808  141.8180  156.5434 N.pl3   1  UNL1        0.1030
     31 O         147.0779  141.6407  155.2852 O.2     1  UNL1        0.0432
     32 O         146.7377  142.7906  157.5900 O.co2   1  UNL1       -0.5746
@<TRIPOS>UNITY_ATOM_ATTR
30 1
charge 1
32 1
charge -1
@<TRIPOS>BOND
     1     1     2    2
     2     2    20    1
     3    21    20    1
     4    21    22    1
     5    22    23    1
     6    23    24    1
     7    24    25   ar
     8    25    26   ar
     9    26    30    1
    10    30    31    2
    11    30    32    1
    12    26    27   ar
    13    27    28   ar
    14    28    29    1
    15     2     3   am
    16     3     4    1
    17     4     5    1
    18     5     6    1
    19     6     9    1
    20     9    10   ar
    21    10    11   ar
    22    11    12   ar
    23    12    15    1
    24    15    16    1
    25    16    17    1
    26    16    18    1
    27    16    19    1
    28    12    13   ar
    29    13    14   ar
    30     6     7    1
    31     7     8    1
    32    29    21    1
    33     8     3    1
    34    28    24   ar
    35    14     9   ar
