@<TRIPOS>MOLECULE
*****
 39 44 0 0 0
SMALL
GASTEIGER

@<TRIPOS>ATOM
      1 C         140.8744  145.0104  158.9255 C.3     1  UNL1        0.0294
      2 C         139.9726  144.2383  158.0085 C.3     1  UNL1        0.0666
      3 S         139.9720  142.7388  158.0449 S.3     1  UNL1       -0.0756
      4 C         140.4206  141.0226  161.4973 C.ar    1  UNL1        0.1669
      5 N         141.7710  140.7977  160.8841 N.ar    1  UNL1       -0.1282
      6 N         141.7672  141.4132  159.5163 N.ar    1  UNL1       -0.1221
      7 C         140.4146  142.0185  159.2840 C.ar    1  UNL1        0.1932
      8 N         139.5824  141.7771  160.5084 N.ar    1  UNL1       -0.2884
      9 C         138.1613  142.2136  160.7086 C.3     1  UNL1        0.1340
     10 C         143.9345  138.0031  166.5753 C.3     1  UNL1        0.0521
     11 C         142.9471  138.6453  165.6465 C.ar    1  UNL1        0.0593
     12 C         143.3827  139.0958  164.2836 C.ar    1  UNL1        0.0147
     13 C         142.3953  139.7381  163.3549 C.ar    1  UNL1        0.0028
     14 C         140.9724  139.9299  163.7889 C.ar    1  UNL1        0.0206
     15 C         139.9850  140.5722  162.8601 C.ar    1  UNL1        0.0374
     16 C         138.5621  140.7639  163.2942 C.ar    1  UNL1        0.0031
     17 C         138.1265  140.3134  164.6571 C.ar    1  UNL1        0.0016
     18 C         139.1138  139.6712  165.5858 C.ar    1  UNL1        0.0191
     19 C         140.5368  139.4794  165.1518 C.ar    1  UNL1        0.0810
     20 N         141.5241  138.8371  166.0806 N.ar    1  UNL1       -0.2497
     21 C         140.3224  145.6257  160.1771 C.3     1  UNL1        0.0730
     22 N         140.5934  144.9895  161.5082 N.3     1  UNL1       -0.2720
     23 C         139.4348  144.9538  162.4603 C.3     1  UNL1        0.0768
     24 C         139.3838  144.3929  163.8507 C.3     1  UNL1        0.0434
     25 C         140.4786  143.7293  164.6321 C.ar    1  UNL1       -0.0230
     26 C         140.0051  143.3117  165.9928 C.ar    1  UNL1        0.0178
     27 C         140.9479  142.6274  166.9377 C.ar    1  UNL1        0.1185
     28 N         140.7679  142.1048  168.3321 N.ar    1  UNL1       -0.2050
     29 C         142.0730  141.5151  168.7782 C.ar    1  UNL1        0.3031
     30 O         143.0596  141.6733  167.6595 O.2     1  UNL1       -0.4317
     31 C         142.3643  142.3607  166.5220 C.ar    1  UNL1        0.1643
     32 C         142.8378  142.7783  165.1613 C.ar    1  UNL1        0.0346
     33 C         141.8950  143.4626  164.2164 C.ar    1  UNL1       -0.0216
     34 C         142.5663  143.7937  162.9165 C.3     1  UNL1        0.0434
     35 C         141.9869  144.4733  161.7113 C.3     1  UNL1        0.0768
     36 C         142.3439  140.8790  170.1094 C.3     1  UNL1        0.4696
     37 F         142.6147  140.2428  171.4405 F       1  UNL1       -0.1619
     38 F         140.9107  140.4442  170.1932 F       1  UNL1       -0.1619
     39 F         143.7770  141.3137  170.0256 F       1  UNL1       -0.1619
@<TRIPOS>BOND
     1    10    11    1
     2    11    12   ar
     3    12    13   ar
     4    13    14   ar
     5    14    15   ar
     6    15     4    1
     7     4     5   ar
     8     5     6   ar
     9     6     7   ar
    10     7     3    1
    11     3     2    1
    12     2     1    1
    13     1    21    1
    14    21    22    1
    15    22    23    1
    16    23    24    1
    17    24    25    1
    18    25    26   ar
    19    26    27   ar
    20    27    28   ar
    21    28    29   ar
    22    29    36    1
    23    36    37    1
    24    36    38    1
    25    36    39    1
    26    29    30   ar
    27    30    31   ar
    28    31    32   ar
    29    32    33   ar
    30    33    34    1
    31    34    35    1
    32     7     8   ar
    33     8     9    1
    34    15    16   ar
    35    16    17   ar
    36    17    18   ar
    37    18    19   ar
    38    19    20   ar
    39    20    11   ar
    40    19    14   ar
    41     8     4   ar
    42    35    22    1
    43    33    25   ar
    44    31    27   ar
@<TRIPOS>MOLECULE
*****
 39 44 0 0 0
SMALL
GASTEIGER

@<TRIPOS>ATOM
      1 C         141.2101  144.8065  158.4352 C.3     1  UNL1        0.0294
      2 C         139.9756  144.5914  157.6105 C.3     1  UNL1        0.0666
      3 S         139.2356  143.2894  157.6937 S.3     1  UNL1       -0.0756
      4 C         139.5283  140.9913  160.8080 C.ar    1  UNL1        0.1669
      5 N         138.4285  141.9183  161.2340 N.ar    1  UNL1       -0.1282
      6 N         138.1851  142.8919  160.1193 N.ar    1  UNL1       -0.1221
      7 C         139.1343  142.5667  159.0042 C.ar    1  UNL1        0.1932
      8 N         139.9644  141.3922  159.4299 N.ar    1  UNL1       -0.2884
      9 C         141.0416  140.7338  158.6197 C.3     1  UNL1        0.1340
     10 C         137.9720  138.7648  167.1223 C.3     1  UNL1        0.0521
     11 C         138.5021  139.0391  165.7462 C.ar    1  UNL1        0.0593
     12 C         137.9377  140.1685  164.9363 C.ar    1  UNL1        0.0147
     13 C         138.4679  140.4428  163.5602 C.ar    1  UNL1        0.0028
     14 C         139.5625  139.5877  162.9939 C.ar    1  UNL1        0.0206
     15 C         140.0926  139.8620  161.6178 C.ar    1  UNL1        0.0374
     16 C         141.1872  139.0068  161.0516 C.ar    1  UNL1        0.0031
     17 C         141.7516  137.8774  161.8615 C.ar    1  UNL1        0.0016
     18 C         141.2215  137.6031  163.2375 C.ar    1  UNL1        0.0191
     19 C         140.1269  138.4582  163.8038 C.ar    1  UNL1        0.0810
     20 N         139.5967  138.1839  165.1799 N.ar    1  UNL1       -0.2497
     21 C         141.1198  145.5311  159.7454 C.3     1  UNL1        0.0730
     22 N         141.1190  144.7586  161.0312 N.3     1  UNL1       -0.2720
     23 C         142.1303  143.6549  161.1279 C.3     1  UNL1        0.0768
     24 C         142.3794  142.7119  162.2676 C.3     1  UNL1        0.0434
     25 C         141.6789  142.6398  163.5919 C.ar    1  UNL1       -0.0230
     26 C         142.2396  141.5442  164.4495 C.ar    1  UNL1        0.0178
     27 C         141.6776  141.3017  165.8189 C.ar    1  UNL1        0.1185
     28 N         142.0239  140.3034  166.8836 N.ar    1  UNL1       -0.2050
     29 C         141.1152  140.5394  168.0535 C.ar    1  UNL1        0.3031
     30 O         140.2073  141.6835  167.7118 O.2     1  UNL1       -0.4317
     31 C         140.5549  142.1546  166.3308 C.ar    1  UNL1        0.1643
     32 C         139.9942  143.2501  165.4732 C.ar    1  UNL1        0.0346
     33 C         140.5561  143.4927  164.1038 C.ar    1  UNL1       -0.0216
     34 C         139.8567  144.6285  163.4177 C.3     1  UNL1        0.0434
     35 C         140.1073  145.1918  162.0502 C.3     1  UNL1        0.0768
     36 C         141.1145  139.7668  169.3392 C.3     1  UNL1        0.4696
     37 F         141.1138  138.9943  170.6249 F       1  UNL1       -0.1619
     38 F         139.7183  140.2372  169.6212 F       1  UNL1       -0.1619
     39 F         142.5106  139.2963  169.0573 F       1  UNL1       -0.1619
@<TRIPOS>BOND
     1    10    11    1
     2    11    12   ar
     3    12    13   ar
     4    13    14   ar
     5    14    15   ar
     6    15     4    1
     7     4     5   ar
     8     5     6   ar
     9     6     7   ar
    10     7     3    1
    11     3     2    1
    12     2     1    1
    13     1    21    1
    14    21    22    1
    15    22    23    1
    16    23    24    1
    17    24    25    1
    18    25    26   ar
    19    26    27   ar
    20    27    28   ar
    21    28    29   ar
    22    29    36    1
    23    36    37    1
    24    36    38    1
    25    36    39    1
    26    29    30   ar
    27    30    31   ar
    28    31    32   ar
    29    32    33   ar
    30    33    34    1
    31    34    35    1
    32     7     8   ar
    33     8     9    1
    34    15    16   ar
    35    16    17   ar
    36    17    18   ar
    37    18    19   ar
    38    19    20   ar
    39    20    11   ar
    40    19    14   ar
    41     8     4   ar
    42    35    22    1
    43    33    25   ar
    44    31    27   ar
@<TRIPOS>MOLECULE
*****
 39 44 0 0 0
SMALL
GASTEIGER

@<TRIPOS>ATOM
      1 C         139.7913  140.4424  168.1830 C.3     1  UNL1        0.0294
      2 C         140.7409  139.8931  169.2062 C.3     1  UNL1        0.0666
      3 S         142.2209  139.9781  168.9778 S.3     1  UNL1       -0.0756
      4 C         143.5059  142.1412  166.0222 C.ar    1  UNL1        0.1669
      5 N         143.7610  143.0560  167.1833 N.ar    1  UNL1       -0.1282
      6 N         143.3107  142.3570  168.4318 N.ar    1  UNL1       -0.1221
      7 C         142.7773  141.0103  168.0423 C.ar    1  UNL1        0.1932
      8 N         142.8979  140.8769  166.5531 N.ar    1  UNL1       -0.2884
      9 C         142.4833  139.6879  165.7379 C.3     1  UNL1        0.1340
     10 C         140.1129  145.9453  161.4106 C.3     1  UNL1        0.0521
     11 C         141.0362  145.0686  162.2037 C.ar    1  UNL1        0.0593
     12 C         140.7360  144.7713  163.6430 C.ar    1  UNL1        0.0147
     13 C         141.6593  143.8946  164.4360 C.ar    1  UNL1        0.0028
     14 C         142.8828  143.3152  163.7899 C.ar    1  UNL1        0.0206
     15 C         143.8060  142.4385  164.5830 C.ar    1  UNL1        0.0374
     16 C         145.0294  141.8592  163.9368 C.ar    1  UNL1        0.0031
     17 C         145.3296  142.1566  162.4975 C.ar    1  UNL1        0.0016
     18 C         144.4064  143.0332  161.7045 C.ar    1  UNL1        0.0191
     19 C         143.1829  143.6126  162.3506 C.ar    1  UNL1        0.0810
     20 N         142.2597  144.4893  161.5575 N.ar    1  UNL1       -0.2497
     21 C         139.0034  139.5083  167.3132 C.3     1  UNL1        0.0730
     22 N         138.8501  139.7965  165.8492 N.3     1  UNL1       -0.2720
     23 C         138.7440  138.5952  164.9571 C.3     1  UNL1        0.0768
     24 C         138.5847  138.5486  163.4662 C.3     1  UNL1        0.0434
     25 C         138.4923  139.6916  162.4994 C.ar    1  UNL1       -0.0230
     26 C         138.3375  139.2051  161.0889 C.ar    1  UNL1        0.0178
     27 C         138.2267  140.1906  159.9635 C.ar    1  UNL1        0.1185
     28 N         138.0673  140.0098  158.4831 N.ar    1  UNL1       -0.2050
     29 C         138.0128  141.3700  157.8531 C.ar    1  UNL1        0.3031
     30 O         138.1385  142.3915  158.9443 O.2     1  UNL1       -0.4317
     31 C         138.2707  141.6626  160.2485 C.ar    1  UNL1        0.1643
     32 C         138.4254  142.1491  161.6591 C.ar    1  UNL1        0.0346
     33 C         138.5362  141.1636  162.7844 C.ar    1  UNL1       -0.0216
     34 C         138.6835  141.8561  164.1068 C.3     1  UNL1        0.0434
     35 C         138.8232  141.2476  165.4707 C.3     1  UNL1        0.0768
     36 C         137.8595  141.6581  156.3890 C.3     1  UNL1        0.4696
     37 F         137.7062  141.9460  154.9250 F       1  UNL1       -0.1619
     38 F         138.1135  140.2128  156.0781 F       1  UNL1       -0.1619
     39 F         137.6054  143.1033  156.6999 F       1  UNL1       -0.1619
@<TRIPOS>BOND
     1    10    11    1
     2    11    12   ar
     3    12    13   ar
     4    13    14   ar
     5    14    15   ar
     6    15     4    1
     7     4     5   ar
     8     5     6   ar
     9     6     7   ar
    10     7     3    1
    11     3     2    1
    12     2     1    1
    13     1    21    1
    14    21    22    1
    15    22    23    1
    16    23    24    1
    17    24    25    1
    18    25    26   ar
    19    26    27   ar
    20    27    28   ar
    21    28    29   ar
    22    29    36    1
    23    36    37    1
    24    36    38    1
    25    36    39    1
    26    29    30   ar
    27    30    31   ar
    28    31    32   ar
    29    32    33   ar
    30    33    34    1
    31    34    35    1
    32     7     8   ar
    33     8     9    1
    34    15    16   ar
    35    16    17   ar
    36    17    18   ar
    37    18    19   ar
    38    19    20   ar
    39    20    11   ar
    40    19    14   ar
    41     8     4   ar
    42    35    22    1
    43    33    25   ar
    44    31    27   ar
@<TRIPOS>MOLECULE
*****
 39 44 0 0 0
SMALL
GASTEIGER

@<TRIPOS>ATOM
      1 C         143.9043  141.7297  158.5933 C.3     1  UNL1        0.0294
      2 C         144.0873  140.2629  158.3378 C.3     1  UNL1        0.0666
      3 S         143.0819  139.2796  158.8596 S.3     1  UNL1       -0.0756
      4 C         141.7915  139.2455  162.5201 C.ar    1  UNL1        0.1669
      5 N         143.1792  138.7039  162.6969 N.ar    1  UNL1       -0.1282
      6 N         143.8314  138.6508  161.3472 N.ar    1  UNL1       -0.1221
      7 C         142.8469  139.1595  160.3362 C.ar    1  UNL1        0.1932
      8 N         141.5863  139.5271  161.0612 N.ar    1  UNL1       -0.2884
      9 C         140.3391  140.0793  160.4368 C.3     1  UNL1        0.1340
     10 C         142.4772  139.1557  169.3592 C.3     1  UNL1        0.0521
     11 C         142.0544  139.2334  167.9221 C.ar    1  UNL1        0.0593
     12 C         143.0601  139.0122  166.8313 C.ar    1  UNL1        0.0147
     13 C         142.6372  139.0900  165.3943 C.ar    1  UNL1        0.0028
     14 C         141.2087  139.3889  165.0479 C.ar    1  UNL1        0.0206
     15 C         140.7859  139.4667  163.6108 C.ar    1  UNL1        0.0374
     16 C         139.3574  139.7656  163.2645 C.ar    1  UNL1        0.0031
     17 C         138.3517  139.9868  164.3552 C.ar    1  UNL1        0.0016
     18 C         138.7745  139.9090  165.7922 C.ar    1  UNL1        0.0191
     19 C         140.2030  139.6101  166.1386 C.ar    1  UNL1        0.0810
     20 N         140.6258  139.5324  167.5757 N.ar    1  UNL1       -0.2497
     21 C         144.6562  142.3965  159.7068 C.3     1  UNL1        0.0730
     22 N         144.0458  142.4892  161.0739 N.3     1  UNL1       -0.2720
     23 C         144.9737  142.2173  162.2207 C.3     1  UNL1        0.0768
     24 C         144.6732  142.2306  163.6903 C.3     1  UNL1        0.0434
     25 C         143.3707  142.5190  164.3759 C.ar    1  UNL1       -0.0230
     26 C         143.5040  142.4260  165.8671 C.ar    1  UNL1        0.0178
     27 C         142.3135  142.6794  166.7438 C.ar    1  UNL1        0.1185
     28 N         142.1420  142.6606  168.2338 N.ar    1  UNL1       -0.2050
     29 C         140.7123  142.9952  168.5402 C.ar    1  UNL1        0.3031
     30 O         140.0001  143.2209  167.2395 O.2     1  UNL1       -0.4317
     31 C         140.9896  143.0258  166.1293 C.ar    1  UNL1        0.1643
     32 C         140.8564  143.1187  164.6381 C.ar    1  UNL1        0.0346
     33 C         142.0468  142.8653  163.7614 C.ar    1  UNL1       -0.0216
     34 C         141.6987  143.0088  162.3095 C.3     1  UNL1        0.0434
     35 C         142.5883  142.8414  161.1134 C.3     1  UNL1        0.0768
     36 C         140.1020  143.0879  169.9073 C.3     1  UNL1        0.4696
     37 F         139.4917  143.1805  171.2743 F       1  UNL1       -0.1619
     38 F         139.5489  141.7019  169.7543 F       1  UNL1       -0.1619
     39 F         140.6549  144.4737  170.0603 F       1  UNL1       -0.1619
@<TRIPOS>BOND
     1    10    11    1
     2    11    12   ar
     3    12    13   ar
     4    13    14   ar
     5    14    15   ar
     6    15     4    1
     7     4     5   ar
     8     5     6   ar
     9     6     7   ar
    10     7     3    1
    11     3     2    1
    12     2     1    1
    13     1    21    1
    14    21    22    1
    15    22    23    1
    16    23    24    1
    17    24    25    1
    18    25    26   ar
    19    26    27   ar
    20    27    28   ar
    21    28    29   ar
    22    29    36    1
    23    36    37    1
    24    36    38    1
    25    36    39    1
    26    29    30   ar
    27    30    31   ar
    28    31    32   ar
    29    32    33   ar
    30    33    34    1
    31    34    35    1
    32     7     8   ar
    33     8     9    1
    34    15    16   ar
    35    16    17   ar
    36    17    18   ar
    37    18    19   ar
    38    19    20   ar
    39    20    11   ar
    40    19    14   ar
    41     8     4   ar
    42    35    22    1
    43    33    25   ar
    44    31    27   ar
@<TRIPOS>MOLECULE
*****
 39 44 0 0 0
SMALL
GASTEIGER

@<TRIPOS>ATOM
      1 C         142.8987  142.8194  158.1453 C.3     1  UNL1        0.0294
      2 C         143.0187  141.9951  156.8977 C.3     1  UNL1        0.0666
      3 S         142.3810  140.6391  156.8305 S.3     1  UNL1       -0.0756
      4 C         141.5207  138.7998  160.1385 C.ar    1  UNL1        0.1669
      5 N         142.8249  138.1525  159.7776 N.ar    1  UNL1       -0.1282
      6 N         143.3059  138.7627  158.4946 N.ar    1  UNL1       -0.1221
      7 C         142.2990  139.7872  158.0624 C.ar    1  UNL1        0.1932
      8 N         141.1958  139.8101  159.0784 N.ar    1  UNL1       -0.2884
      9 C         139.9807  140.6890  159.0410 C.3     1  UNL1        0.1340
     10 C         143.1151  138.8125  166.8249 C.3     1  UNL1        0.0521
     11 C         142.5083  138.7321  165.4554 C.ar    1  UNL1        0.0593
     12 C         143.3412  139.0409  164.2467 C.ar    1  UNL1        0.0147
     13 C         142.7344  138.9605  162.8774 C.ar    1  UNL1        0.0028
     14 C         141.2947  138.5714  162.7166 C.ar    1  UNL1        0.0206
     15 C         140.6879  138.4911  161.3471 C.ar    1  UNL1        0.0374
     16 C         139.2482  138.1019  161.1865 C.ar    1  UNL1        0.0031
     17 C         138.4153  137.7931  162.3952 C.ar    1  UNL1        0.0016
     18 C         139.0221  137.8735  163.7645 C.ar    1  UNL1        0.0191
     19 C         140.4618  138.2626  163.9253 C.ar    1  UNL1        0.0810
     20 N         141.0686  138.3430  165.2948 N.ar    1  UNL1       -0.2497
     21 C         144.0055  142.8131  159.1576 C.3     1  UNL1        0.0730
     22 N         143.6836  142.7319  160.6204 N.3     1  UNL1       -0.2720
     23 C         142.2280  142.6064  160.9604 C.3     1  UNL1        0.0768
     24 C         141.5891  142.5049  162.3138 C.3     1  UNL1        0.0434
     25 C         142.2479  142.5039  163.6612 C.ar    1  UNL1       -0.0230
     26 C         141.2388  142.3835  164.7646 C.ar    1  UNL1        0.0178
     27 C         141.6902  142.3633  166.1949 C.ar    1  UNL1        0.1185
     28 N         140.9327  142.2551  167.4850 N.ar    1  UNL1       -0.2050
     29 C         141.9250  142.2885  168.6094 C.ar    1  UNL1        0.3031
     30 O         143.2957  142.4173  168.0142 O.2     1  UNL1       -0.4317
     31 C         143.1507  142.4635  166.5220 C.ar    1  UNL1        0.1643
     32 C         144.1598  142.5840  165.4187 C.ar    1  UNL1        0.0346
     33 C         143.7084  142.6042  163.9883 C.ar    1  UNL1       -0.0216
     34 C         144.8707  142.7301  163.0486 C.3     1  UNL1        0.0434
     35 C         144.8596  142.7870  161.5497 C.3     1  UNL1        0.0768
     36 C         141.6029  142.2073  170.0722 C.3     1  UNL1        0.4696
     37 F         141.2809  142.1261  171.5349 F       1  UNL1       -0.1619
     38 F         141.8789  143.6748  170.2144 F       1  UNL1       -0.1619
     39 F         141.3270  140.7398  169.9300 F       1  UNL1       -0.1619
@<TRIPOS>BOND
     1    10    11    1
     2    11    12   ar
     3    12    13   ar
     4    13    14   ar
     5    14    15   ar
     6    15     4    1
     7     4     5   ar
     8     5     6   ar
     9     6     7   ar
    10     7     3    1
    11     3     2    1
    12     2     1    1
    13     1    21    1
    14    21    22    1
    15    22    23    1
    16    23    24    1
    17    24    25    1
    18    25    26   ar
    19    26    27   ar
    20    27    28   ar
    21    28    29   ar
    22    29    36    1
    23    36    37    1
    24    36    38    1
    25    36    39    1
    26    29    30   ar
    27    30    31   ar
    28    31    32   ar
    29    32    33   ar
    30    33    34    1
    31    34    35    1
    32     7     8   ar
    33     8     9    1
    34    15    16   ar
    35    16    17   ar
    36    17    18   ar
    37    18    19   ar
    38    19    20   ar
    39    20    11   ar
    40    19    14   ar
    41     8     4   ar
    42    35    22    1
    43    33    25   ar
    44    31    27   ar
@<TRIPOS>MOLECULE
*****
 39 44 0 0 0
SMALL
GASTEIGER

@<TRIPOS>ATOM
      1 C         140.2537  139.0568  158.2851 C.3     1  UNL1        0.0294
      2 C         141.5479  138.7221  157.6046 C.3     1  UNL1        0.0666
      3 S         142.7116  139.6636  157.7014 S.3     1  UNL1       -0.0756
      4 C         143.3263  141.6714  160.9658 C.ar    1  UNL1        0.1669
      5 N         144.1744  140.4580  161.2078 N.ar    1  UNL1       -0.1282
      6 N         144.0472  139.5582  160.0144 N.ar    1  UNL1       -0.1221
      7 C         143.1207  140.2155  159.0349 C.ar    1  UNL1        0.1932
      8 N         142.6752  141.5215  159.6228 N.ar    1  UNL1       -0.2884
      9 C         141.7423  142.5050  158.9806 C.3     1  UNL1        0.1340
     10 C         137.8494  143.8405  164.5083 C.3     1  UNL1        0.0521
     11 C         139.1768  143.5881  163.8568 C.ar    1  UNL1        0.0593
     12 C         139.3442  142.4284  162.9202 C.ar    1  UNL1        0.0147
     13 C         140.6716  142.1761  162.2688 C.ar    1  UNL1        0.0028
     14 C         141.8316  143.0834  162.5538 C.ar    1  UNL1        0.0206
     15 C         143.1589  142.8311  161.9023 C.ar    1  UNL1        0.0374
     16 C         144.3188  143.7385  162.1873 C.ar    1  UNL1        0.0031
     17 C         144.1514  144.8982  163.1239 C.ar    1  UNL1        0.0016
     18 C         142.8241  145.1505  163.7753 C.ar    1  UNL1        0.0191
     19 C         141.6641  144.2431  163.4903 C.ar    1  UNL1        0.0810
     20 N         140.3368  144.4955  164.1418 N.ar    1  UNL1       -0.2497
     21 C         139.6605  138.1029  159.2791 C.3     1  UNL1        0.0730
     22 N         139.7558  138.3943  160.7475 N.3     1  UNL1       -0.2720
     23 C         141.1414  138.3945  161.3223 C.3     1  UNL1        0.0768
     24 C         141.5664  138.6475  162.7385 C.3     1  UNL1        0.0434
     25 C         140.7108  138.9626  163.9294 C.ar    1  UNL1       -0.0230
     26 C         141.5394  139.1450  165.1665 C.ar    1  UNL1        0.0178
     27 C         140.8761  139.4674  166.4727 C.ar    1  UNL1        0.1185
     28 N         141.4278  139.7012  167.8478 N.ar    1  UNL1       -0.2050
     29 C         140.2769  139.9859  168.7668 C.ar    1  UNL1        0.3031
     30 O         139.0140  139.9279  167.9596 O.2     1  UNL1       -0.4317
     31 C         139.3842  139.6075  166.5419 C.ar    1  UNL1        0.1643
     32 C         138.5557  139.4252  165.3048 C.ar    1  UNL1        0.0346
     33 C         139.2190  139.1027  163.9986 C.ar    1  UNL1       -0.0216
     34 C         138.2142  138.9623  162.8938 C.3     1  UNL1        0.0434
     35 C         138.4532  138.6470  161.4469 C.3     1  UNL1        0.0768
     36 C         140.3724  140.2773  170.2351 C.3     1  UNL1        0.4696
     37 F         140.4678  140.5687  171.7034 F       1  UNL1       -0.1619
     38 F         139.5237  141.4998  170.0477 F       1  UNL1       -0.1619
     39 F         141.2210  139.0548  170.4226 F       1  UNL1       -0.1619
@<TRIPOS>BOND
     1    10    11    1
     2    11    12   ar
     3    12    13   ar
     4    13    14   ar
     5    14    15   ar
     6    15     4    1
     7     4     5   ar
     8     5     6   ar
     9     6     7   ar
    10     7     3    1
    11     3     2    1
    12     2     1    1
    13     1    21    1
    14    21    22    1
    15    22    23    1
    16    23    24    1
    17    24    25    1
    18    25    26   ar
    19    26    27   ar
    20    27    28   ar
    21    28    29   ar
    22    29    36    1
    23    36    37    1
    24    36    38    1
    25    36    39    1
    26    29    30   ar
    27    30    31   ar
    28    31    32   ar
    29    32    33   ar
    30    33    34    1
    31    34    35    1
    32     7     8   ar
    33     8     9    1
    34    15    16   ar
    35    16    17   ar
    36    17    18   ar
    37    18    19   ar
    38    19    20   ar
    39    20    11   ar
    40    19    14   ar
    41     8     4   ar
    42    35    22    1
    43    33    25   ar
    44    31    27   ar
@<TRIPOS>MOLECULE
*****
 39 44 0 0 0
SMALL
GASTEIGER

@<TRIPOS>ATOM
      1 C         139.7994  139.5418  157.9973 C.3     1  UNL1        0.0294
      2 C         138.4133  140.0357  157.7055 C.3     1  UNL1        0.0666
      3 S         138.1440  141.5090  157.6236 S.3     1  UNL1       -0.0756
      4 C         139.1790  143.4102  160.8454 C.ar    1  UNL1        0.1669
      5 N         139.7967  144.2755  159.7871 N.ar    1  UNL1       -0.1282
      6 N         139.4841  143.6686  158.4515 N.ar    1  UNL1       -0.1221
      7 C         138.6733  142.4283  158.6842 C.ar    1  UNL1        0.1932
      8 N         138.4847  142.2686  160.1637 N.ar    1  UNL1       -0.2884
      9 C         137.7337  141.1616  160.8424 C.3     1  UNL1        0.1340
     10 C         144.5022  143.2798  165.1924 C.3     1  UNL1        0.0521
     11 C         143.1877  143.3711  164.4756 C.ar    1  UNL1        0.0593
     12 C         143.1226  143.1361  162.9956 C.ar    1  UNL1        0.0147
     13 C         141.8080  143.2274  162.2789 C.ar    1  UNL1        0.0028
     14 C         140.5587  143.5539  163.0421 C.ar    1  UNL1        0.0206
     15 C         139.2442  143.6453  162.3254 C.ar    1  UNL1        0.0374
     16 C         137.9949  143.9717  163.0887 C.ar    1  UNL1        0.0031
     17 C         138.0601  144.2068  164.5687 C.ar    1  UNL1        0.0016
     18 C         139.3745  144.1154  165.2854 C.ar    1  UNL1        0.0191
     19 C         140.6238  143.7890  164.5222 C.ar    1  UNL1        0.0810
     20 N         141.9384  143.6976  165.2390 N.ar    1  UNL1       -0.2497
     21 C         140.0036  138.3979  158.9458 C.3     1  UNL1        0.0730
     22 N         140.0134  138.6431  160.4256 N.3     1  UNL1       -0.2720
     23 C         141.1696  139.4455  160.9446 C.3     1  UNL1        0.0768
     24 C         141.4637  139.8566  162.3570 C.3     1  UNL1        0.0434
     25 C         140.6743  139.5667  163.5989 C.ar    1  UNL1       -0.0230
     26 C         141.3220  140.1654  164.8123 C.ar    1  UNL1        0.0178
     27 C         140.6913  139.9915  166.1620 C.ar    1  UNL1        0.1185
     28 N         141.0957  140.4635  167.5272 N.ar    1  UNL1       -0.2050
     29 C         140.0671  139.9827  168.5074 C.ar    1  UNL1        0.3031
     30 O         139.0270  139.2136  167.7481 O.2     1  UNL1       -0.4317
     31 C         139.4127  139.2190  166.2986 C.ar    1  UNL1        0.1643
     32 C         138.7650  138.6204  165.0853 C.ar    1  UNL1        0.0346
     33 C         139.3957  138.7942  163.7355 C.ar    1  UNL1       -0.0216
     34 C         138.5909  138.1208  162.6637 C.3     1  UNL1        0.0434
     35 C         138.8659  138.0536  161.1907 C.3     1  UNL1        0.0768
     36 C         140.0770  140.2280  169.9872 C.3     1  UNL1        0.4696
     37 F         140.0869  140.4733  171.4670 F       1  UNL1       -0.1619
     38 F         141.5164  139.8101  170.0469 F       1  UNL1       -0.1619
     39 F         138.6376  140.6459  169.9276 F       1  UNL1       -0.1619
@<TRIPOS>BOND
     1    10    11    1
     2    11    12   ar
     3    12    13   ar
     4    13    14   ar
     5    14    15   ar
     6    15     4    1
     7     4     5   ar
     8     5     6   ar
     9     6     7   ar
    10     7     3    1
    11     3     2    1
    12     2     1    1
    13     1    21    1
    14    21    22    1
    15    22    23    1
    16    23    24    1
    17    24    25    1
    18    25    26   ar
    19    26    27   ar
    20    27    28   ar
    21    28    29   ar
    22    29    36    1
    23    36    37    1
    24    36    38    1
    25    36    39    1
    26    29    30   ar
    27    30    31   ar
    28    31    32   ar
    29    32    33   ar
    30    33    34    1
    31    34    35    1
    32     7     8   ar
    33     8     9    1
    34    15    16   ar
    35    16    17   ar
    36    17    18   ar
    37    18    19   ar
    38    19    20   ar
    39    20    11   ar
    40    19    14   ar
    41     8     4   ar
    42    35    22    1
    43    33    25   ar
    44    31    27   ar
@<TRIPOS>MOLECULE
*****
 39 44 0 0 0
SMALL
GASTEIGER

@<TRIPOS>ATOM
      1 C         142.8879  141.7971  157.8677 C.3     1  UNL1        0.0294
      2 C         142.6533  143.2141  157.4348 C.3     1  UNL1        0.0666
      3 S         141.2611  143.7721  157.4172 S.3     1  UNL1       -0.0756
      4 C         139.3640  143.3173  160.7727 C.ar    1  UNL1        0.1669
      5 N         138.3825  142.7290  159.8027 N.ar    1  UNL1       -0.1282
      6 N         138.9737  142.8278  158.4277 N.ar    1  UNL1       -0.1221
      7 C         140.3206  143.4771  158.5478 C.ar    1  UNL1        0.1932
      8 N         140.5617  143.7795  159.9971 N.ar    1  UNL1       -0.2884
      9 C         141.7859  144.4301  160.5702 C.3     1  UNL1        0.1340
     10 C         138.4057  138.4682  165.5496 C.3     1  UNL1        0.0521
     11 C         138.5992  139.7072  164.7265 C.ar    1  UNL1        0.0593
     12 C         138.7833  139.6001  163.2417 C.ar    1  UNL1        0.0147
     13 C         138.9768  140.8392  162.4187 C.ar    1  UNL1        0.0028
     14 C         138.9864  142.1853  163.0805 C.ar    1  UNL1        0.0206
     15 C         139.1800  143.4243  162.2574 C.ar    1  UNL1        0.0374
     16 C         139.1895  144.7703  162.9193 C.ar    1  UNL1        0.0031
     17 C         139.0055  144.8774  164.4041 C.ar    1  UNL1        0.0016
     18 C         138.8119  143.6385  165.2271 C.ar    1  UNL1        0.0191
     19 C         138.8024  142.2924  164.5653 C.ar    1  UNL1        0.0810
     20 N         138.6088  141.0533  165.3884 N.ar    1  UNL1       -0.2497
     21 C         144.0231  141.4739  158.7933 C.3     1  UNL1        0.0730
     22 N         143.8358  141.5854  160.2774 N.3     1  UNL1       -0.2720
     23 C         142.7408  140.7419  160.8602 C.3     1  UNL1        0.0768
     24 C         142.3078  140.6302  162.2921 C.3     1  UNL1        0.0434
     25 C         142.8627  141.3344  163.4945 C.ar    1  UNL1       -0.0230
     26 C         142.1379  140.9360  164.7460 C.ar    1  UNL1        0.0178
     27 C         142.5381  141.5274  166.0651 C.ar    1  UNL1        0.1185
     28 N         142.0123  141.3275  167.4556 N.ar    1  UNL1       -0.2050
     29 C         142.8123  142.1937  168.3827 C.ar    1  UNL1        0.3031
     30 O         143.8326  142.9290  167.5652 O.2     1  UNL1       -0.4317
     31 C         143.6631  142.5172  166.1329 C.ar    1  UNL1        0.1643
     32 C         144.3880  142.9156  164.8815 C.ar    1  UNL1        0.0346
     33 C         143.9877  142.3243  163.5624 C.ar    1  UNL1       -0.0216
     34 C         144.8357  142.8543  162.4443 C.3     1  UNL1        0.0434
     35 C         144.7680  142.5254  160.9824 C.3     1  UNL1        0.0768
     36 C         142.6248  142.3051  169.8668 C.3     1  UNL1        0.4696
     37 F         142.4375  142.4164  171.3508 F       1  UNL1       -0.1619
     38 F         144.1067  142.1803  170.0633 F       1  UNL1       -0.1619
     39 F         141.1431  142.4299  169.6703 F       1  UNL1       -0.1619
@<TRIPOS>BOND
     1    10    11    1
     2    11    12   ar
     3    12    13   ar
     4    13    14   ar
     5    14    15   ar
     6    15     4    1
     7     4     5   ar
     8     5     6   ar
     9     6     7   ar
    10     7     3    1
    11     3     2    1
    12     2     1    1
    13     1    21    1
    14    21    22    1
    15    22    23    1
    16    23    24    1
    17    24    25    1
    18    25    26   ar
    19    26    27   ar
    20    27    28   ar
    21    28    29   ar
    22    29    36    1
    23    36    37    1
    24    36    38    1
    25    36    39    1
    26    29    30   ar
    27    30    31   ar
    28    31    32   ar
    29    32    33   ar
    30    33    34    1
    31    34    35    1
    32     7     8   ar
    33     8     9    1
    34    15    16   ar
    35    16    17   ar
    36    17    18   ar
    37    18    19   ar
    38    19    20   ar
    39    20    11   ar
    40    19    14   ar
    41     8     4   ar
    42    35    22    1
    43    33    25   ar
    44    31    27   ar
@<TRIPOS>MOLECULE
*****
 39 44 0 0 0
SMALL
GASTEIGER

@<TRIPOS>ATOM
      1 C         139.9538  138.2189  158.4655 C.3     1  UNL1        0.0294
      2 C         139.7501  139.1272  157.2892 C.3     1  UNL1        0.0666
      3 S         139.0098  140.4206  157.4596 S.3     1  UNL1       -0.0756
      4 C         139.5443  142.5831  160.6382 C.ar    1  UNL1        0.1669
      5 N         140.5776  143.1612  159.7171 N.ar    1  UNL1       -0.1282
      6 N         140.5031  142.4214  158.4144 N.ar    1  UNL1       -0.1221
      7 C         139.4238  141.3862  158.5302 C.ar    1  UNL1        0.1932
      8 N         138.8313  141.4862  159.9045 N.ar    1  UNL1       -0.2884
      9 C         137.7206  140.6380  160.4497 C.3     1  UNL1        0.1340
     10 C         143.5741  142.6054  166.2069 C.3     1  UNL1        0.0521
     11 C         142.4986  142.7102  165.1665 C.ar    1  UNL1        0.0593
     12 C         142.7710  142.2687  163.7591 C.ar    1  UNL1        0.0147
     13 C         141.6954  142.3736  162.7188 C.ar    1  UNL1        0.0028
     14 C         140.3475  142.9198  163.0859 C.ar    1  UNL1        0.0206
     15 C         139.2720  143.0246  162.0455 C.ar    1  UNL1        0.0374
     16 C         137.9241  143.5708  162.4128 C.ar    1  UNL1        0.0031
     17 C         137.6518  144.0123  163.8202 C.ar    1  UNL1        0.0016
     18 C         138.7272  143.9075  164.8605 C.ar    1  UNL1        0.0191
     19 C         140.0751  143.3613  164.4934 C.ar    1  UNL1        0.0810
     20 N         141.1507  143.2565  165.5337 N.ar    1  UNL1       -0.2497
     21 C         141.3075  138.1082  159.1020 C.3     1  UNL1        0.0730
     22 N         141.4645  138.3391  160.5757 N.3     1  UNL1       -0.2720
     23 C         140.2228  138.7604  161.3044 C.3     1  UNL1        0.0768
     24 C         140.0524  139.0649  162.7633 C.3     1  UNL1        0.0434
     25 C         141.0815  139.0233  163.8537 C.ar    1  UNL1       -0.0230
     26 C         140.4906  139.4015  165.1796 C.ar    1  UNL1        0.0178
     27 C         141.3534  139.4234  166.4064 C.ar    1  UNL1        0.1185
     28 N         141.0536  139.7532  167.8386 N.ar    1  UNL1       -0.2050
     29 C         142.3219  139.6007  168.6248 C.ar    1  UNL1        0.3031
     30 O         143.4057  139.1767  167.6784 O.2     1  UNL1       -0.4317
     31 C         142.8072  139.0671  166.3075 C.ar    1  UNL1        0.1643
     32 C         143.3981  138.6889  164.9816 C.ar    1  UNL1        0.0346
     33 C         142.5352  138.6670  163.7548 C.ar    1  UNL1       -0.0216
     34 C         143.3189  138.2643  162.5408 C.3     1  UNL1        0.0434
     35 C         142.8423  138.1184  161.1260 C.3     1  UNL1        0.0768
     36 C         142.4789  139.8317  170.0986 C.3     1  UNL1        0.4696
     37 F         142.6358  140.0627  171.5723 F       1  UNL1       -0.1619
     38 F         142.6745  138.3594  170.3085 F       1  UNL1       -0.1619
     39 F         142.2832  141.3040  169.8887 F       1  UNL1       -0.1619
@<TRIPOS>BOND
     1    10    11    1
     2    11    12   ar
     3    12    13   ar
     4    13    14   ar
     5    14    15   ar
     6    15     4    1
     7     4     5   ar
     8     5     6   ar
     9     6     7   ar
    10     7     3    1
    11     3     2    1
    12     2     1    1
    13     1    21    1
    14    21    22    1
    15    22    23    1
    16    23    24    1
    17    24    25    1
    18    25    26   ar
    19    26    27   ar
    20    27    28   ar
    21    28    29   ar
    22    29    36    1
    23    36    37    1
    24    36    38    1
    25    36    39    1
    26    29    30   ar
    27    30    31   ar
    28    31    32   ar
    29    32    33   ar
    30    33    34    1
    31    34    35    1
    32     7     8   ar
    33     8     9    1
    34    15    16   ar
    35    16    17   ar
    36    17    18   ar
    37    18    19   ar
    38    19    20   ar
    39    20    11   ar
    40    19    14   ar
    41     8     4   ar
    42    35    22    1
    43    33    25   ar
    44    31    27   ar
