@<TRIPOS>MOLECULE
*****
 27 30 0 0 0
SMALL
GASTEIGER

@<TRIPOS>ATOM
      1 C         140.1221  137.4663  162.9147 C.3     1  UNL1        0.0723
      2 C         140.7087  137.9892  161.6370 C.3     1  UNL1        0.0191
      3 C         139.7207  138.3581  160.5704 C.3     1  UNL1        0.0062
      4 C         139.9858  138.9030  159.1982 C.3     1  UNL1        0.0277
      5 C         141.3043  139.2135  158.5537 C.ar    1  UNL1       -0.0063
      6 C         141.1228  139.7452  157.1630 C.ar    1  UNL1       -0.0014
      7 C         142.3203  140.1191  156.3408 C.ar    1  UNL1        0.0203
      8 C         143.6994  139.9614  156.9094 C.ar    1  UNL1        0.0985
      9 N         143.8809  139.4298  158.3002 N.ar    1  UNL1       -0.2461
     10 C         142.6833  139.0558  159.1224 C.ar    1  UNL1        0.0817
     11 C         143.0845  138.5487  160.4759 C.3     1  UNL1        0.1498
     12 O         144.5595  138.5113  160.7459 O.3     1  UNL1       -0.3785
     13 C         142.2058  138.0740  161.5950 C.3     1  UNL1        0.0368
     14 H         145.0390  138.8354  159.9675 H       1  UNL1        0.2108
     15 N         140.0264  140.0752  166.5800 N.pl3   1  UNL1       -0.3049
     16 C         141.2640  139.2963  166.2460 C.3     1  UNL1        0.1081
     17 C         141.2960  138.4267  165.0241 C.3     1  UNL1        0.0938
     18 N         140.0902  138.3359  164.1365 N.3     1  UNL1       -0.2698
     19 C         138.8526  139.1149  164.4706 C.3     1  UNL1        0.0938
     20 C         138.8207  139.9845  165.6923 C.3     1  UNL1        0.1081
     21 C         140.9520  142.9243  166.4178 C.3     1  UNL1        0.0323
     22 C         140.4573  142.3694  167.7207 C.ar    1  UNL1       -0.0085
     23 C         140.4254  143.2391  168.9424 C.ar    1  UNL1       -0.0030
     24 C         139.9307  142.6842  170.2452 C.ar    1  UNL1       -0.0002
     25 C         139.4680  141.2597  170.3264 C.ar    1  UNL1        0.0012
     26 C         139.4999  140.3900  169.1046 C.ar    1  UNL1        0.0142
     27 C         139.9945  140.9449  167.8018 C.ar    1  UNL1        0.0439
@<TRIPOS>BOND
     1    21    22    1
     2    22    23   ar
     3    23    24   ar
     4    24    25   ar
     5    25    26   ar
     6    26    27   ar
     7    27    15    1
     8    15    16    1
     9    16    17    1
    10    17    18    1
    11    18     1    1
    12     2     1    1
    13     2     3    1
    14     3     4    1
    15     4     5    1
    16     5     6   ar
    17     6     7   ar
    18     7     8   ar
    19     8     9   ar
    20     9    10   ar
    21    10    11    1
    22    11    12    1
    23    11    13    1
    24    18    19    1
    25    19    20    1
    26    27    22   ar
    27    20    15    1
    28    13     2    1
    29    10     5   ar
    30    12    14    1
@<TRIPOS>MOLECULE
*****
 27 30 0 0 0
SMALL
GASTEIGER

@<TRIPOS>ATOM
      1 C         140.0338  137.3185  163.5803 C.3     1  UNL1        0.0723
      2 C         139.8900  137.9585  162.2313 C.3     1  UNL1        0.0191
      3 C         141.1360  138.0062  161.3975 C.3     1  UNL1        0.0062
      4 C         141.3190  138.5734  160.0210 C.3     1  UNL1        0.0277
      5 C         140.3012  139.2329  159.1382 C.ar    1  UNL1       -0.0063
      6 C         140.9028  139.6595  157.8321 C.ar    1  UNL1       -0.0014
      7 C         140.0522  140.3413  156.8018 C.ar    1  UNL1        0.0203
      8 C         138.6000  140.5965  157.0776 C.ar    1  UNL1        0.0985
      9 N         137.9984  140.1699  158.3837 N.ar    1  UNL1       -0.2461
     10 C         138.8490  139.4881  159.4140 C.ar    1  UNL1        0.0817
     11 C         138.0560  139.1468  160.6407 C.3     1  UNL1        0.1498
     12 O         136.6083  139.5380  160.6094 O.3     1  UNL1       -0.3785
     13 C         138.5192  138.4661  161.8945 C.3     1  UNL1        0.0368
     14 H         136.4078  139.9681  159.7634 H       1  UNL1        0.2108
     15 N         140.3748  139.8827  167.2624 N.pl3   1  UNL1       -0.3049
     16 C         141.6090  139.4848  166.5087 C.3     1  UNL1        0.1081
     17 C         141.4954  138.6300  165.2813 C.3     1  UNL1        0.0938
     18 N         140.1474  138.1732  164.8076 N.3     1  UNL1       -0.2698
     19 C         138.9131  138.5712  165.5614 C.3     1  UNL1        0.0938
     20 C         139.0268  139.4260  166.7888 C.3     1  UNL1        0.1081
     21 C         140.4013  142.8721  167.0113 C.3     1  UNL1        0.0323
     22 C         140.5017  142.2322  168.3643 C.ar    1  UNL1       -0.0085
     23 C         140.6153  143.0870  169.5916 C.ar    1  UNL1       -0.0030
     24 C         140.7157  142.4471  170.9445 C.ar    1  UNL1       -0.0002
     25 C         140.7024  140.9524  171.0701 C.ar    1  UNL1        0.0012
     26 C         140.5887  140.0976  169.8428 C.ar    1  UNL1        0.0142
     27 C         140.4884  140.7375  168.4898 C.ar    1  UNL1        0.0439
@<TRIPOS>BOND
     1    21    22    1
     2    22    23   ar
     3    23    24   ar
     4    24    25   ar
     5    25    26   ar
     6    26    27   ar
     7    27    15    1
     8    15    16    1
     9    16    17    1
    10    17    18    1
    11    18     1    1
    12     2     1    1
    13     2     3    1
    14     3     4    1
    15     4     5    1
    16     5     6   ar
    17     6     7   ar
    18     7     8   ar
    19     8     9   ar
    20     9    10   ar
    21    10    11    1
    22    11    12    1
    23    11    13    1
    24    18    19    1
    25    19    20    1
    26    27    22   ar
    27    20    15    1
    28    13     2    1
    29    10     5   ar
    30    12    14    1
@<TRIPOS>MOLECULE
*****
 27 30 0 0 0
SMALL
GASTEIGER

@<TRIPOS>ATOM
      1 C         139.4711  137.8267  163.0286 C.3     1  UNL1        0.0723
      2 C         139.4577  138.4346  164.3998 C.3     1  UNL1        0.0191
      3 C         140.5319  139.4449  164.6743 C.3     1  UNL1        0.0062
      4 C         140.7855  140.2219  165.9321 C.3     1  UNL1        0.0277
      5 C         140.0277  140.1806  167.2259 C.ar    1  UNL1       -0.0063
      6 C         140.6155  141.1214  168.2356 C.ar    1  UNL1       -0.0014
      7 C         140.0045  141.2335  169.6009 C.ar    1  UNL1        0.0203
      8 C         138.8058  140.4049  169.9565 C.ar    1  UNL1        0.0985
      9 N         138.2180  139.4642  168.9468 N.ar    1  UNL1       -0.2461
     10 C         138.8290  139.3520  167.5815 C.ar    1  UNL1        0.0817
     11 C         138.0921  138.3601  166.7311 C.3     1  UNL1        0.1498
     12 O         136.9204  137.6876  167.3830 O.3     1  UNL1       -0.3785
     13 C         138.3718  137.9518  165.3152 C.3     1  UNL1        0.0368
     14 H         136.8225  138.0164  168.2903 H       1  UNL1        0.2108
     15 N         138.4409  140.3418  159.4421 N.pl3   1  UNL1       -0.3049
     16 C         137.7458  140.5800  160.7498 C.3     1  UNL1        0.1081
     17 C         138.0892  139.7416  161.9453 C.3     1  UNL1        0.0938
     18 N         139.1277  138.6651  161.8331 N.3     1  UNL1       -0.2698
     19 C         139.8228  138.4269  160.5254 C.3     1  UNL1        0.0938
     20 C         139.4794  139.2653  159.3299 C.3     1  UNL1        0.1081
     21 C         139.8967  142.9180  158.9485 C.3     1  UNL1        0.0323
     22 C         138.8254  142.4683  157.9998 C.ar    1  UNL1       -0.0085
     23 C         138.4821  143.3067  156.8043 C.ar    1  UNL1       -0.0030
     24 C         137.4108  142.8569  155.8556 C.ar    1  UNL1       -0.0002
     25 C         136.6828  141.5688  156.1024 C.ar    1  UNL1        0.0012
     26 C         137.0262  140.7305  157.2979 C.ar    1  UNL1        0.0142
     27 C         138.0975  141.1802  158.2466 C.ar    1  UNL1        0.0439
@<TRIPOS>BOND
     1    21    22    1
     2    22    23   ar
     3    23    24   ar
     4    24    25   ar
     5    25    26   ar
     6    26    27   ar
     7    27    15    1
     8    15    16    1
     9    16    17    1
    10    17    18    1
    11    18     1    1
    12     2     1    1
    13     2     3    1
    14     3     4    1
    15     4     5    1
    16     5     6   ar
    17     6     7   ar
    18     7     8   ar
    19     8     9   ar
    20     9    10   ar
    21    10    11    1
    22    11    12    1
    23    11    13    1
    24    18    19    1
    25    19    20    1
    26    27    22   ar
    27    20    15    1
    28    13     2    1
    29    10     5   ar
    30    12    14    1
@<TRIPOS>MOLECULE
*****
 27 30 0 0 0
SMALL
GASTEIGER

@<TRIPOS>ATOM
      1 C         137.9419  143.6156  163.3879 C.3     1  UNL1        0.0723
      2 C         138.6288  143.7867  162.0654 C.3     1  UNL1        0.0191
      3 C         139.5311  144.9795  161.9502 C.3     1  UNL1        0.0062
      4 C         140.3500  145.4224  160.7741 C.3     1  UNL1        0.0277
      5 C         140.4690  144.7822  159.4228 C.ar    1  UNL1       -0.0063
      6 C         141.3992  145.5510  158.5321 C.ar    1  UNL1       -0.0014
      7 C         141.6587  145.0785  157.1324 C.ar    1  UNL1        0.0203
      8 C         140.9881  143.8370  156.6234 C.ar    1  UNL1        0.0985
      9 N         140.0579  143.0682  157.5142 N.ar    1  UNL1       -0.2461
     10 C         139.7983  143.5407  158.9139 C.ar    1  UNL1        0.0817
     11 C         138.8431  142.6330  159.6306 C.3     1  UNL1        0.1498
     12 O         138.3421  141.4607  158.8401 O.3     1  UNL1       -0.3785
     13 C         138.3226  142.7424  161.0331 C.3     1  UNL1        0.0368
     14 H         138.7334  141.4782  157.9527 H       1  UNL1        0.2108
     15 N         140.0000  141.4039  166.7229 N.pl3   1  UNL1       -0.3049
     16 C         140.2261  142.8763  166.5479 C.3     1  UNL1        0.1081
     17 C         139.5401  143.6136  165.4362 C.3     1  UNL1        0.0938
     18 N         138.6279  142.8784  164.4995 N.3     1  UNL1       -0.2698
     19 C         138.4018  141.4059  164.6746 C.3     1  UNL1        0.0938
     20 C         139.0878  140.6686  165.7862 C.3     1  UNL1        0.1081
     21 C         142.6729  140.1263  166.2501 C.3     1  UNL1        0.0323
     22 C         142.0224  140.0278  167.5982 C.ar    1  UNL1       -0.0085
     23 C         142.7085  139.2905  168.7098 C.ar    1  UNL1       -0.0030
     24 C         142.0580  139.1920  170.0578 C.ar    1  UNL1       -0.0002
     25 C         140.7216  139.8308  170.2942 C.ar    1  UNL1        0.0012
     26 C         140.0356  140.5680  169.1826 C.ar    1  UNL1        0.0142
     27 C         140.6860  140.6666  167.8346 C.ar    1  UNL1        0.0439
@<TRIPOS>BOND
     1    21    22    1
     2    22    23   ar
     3    23    24   ar
     4    24    25   ar
     5    25    26   ar
     6    26    27   ar
     7    27    15    1
     8    15    16    1
     9    16    17    1
    10    17    18    1
    11    18     1    1
    12     2     1    1
    13     2     3    1
    14     3     4    1
    15     4     5    1
    16     5     6   ar
    17     6     7   ar
    18     7     8   ar
    19     8     9   ar
    20     9    10   ar
    21    10    11    1
    22    11    12    1
    23    11    13    1
    24    18    19    1
    25    19    20    1
    26    27    22   ar
    27    20    15    1
    28    13     2    1
    29    10     5   ar
    30    12    14    1
@<TRIPOS>MOLECULE
*****
 27 30 0 0 0
SMALL
GASTEIGER

@<TRIPOS>ATOM
      1 C         138.5271  138.7905  163.5233 C.3     1  UNL1        0.0723
      2 C         138.5690  139.4634  162.1834 C.3     1  UNL1        0.0191
      3 C         139.0269  138.6078  161.0395 C.3     1  UNL1        0.0062
      4 C         139.1764  138.9805  159.5943 C.3     1  UNL1        0.0277
      5 C         138.9048  140.3006  158.9358 C.ar    1  UNL1       -0.0063
      6 C         139.1851  140.2465  157.4633 C.ar    1  UNL1       -0.0014
      7 C         138.9774  141.4660  156.6150 C.ar    1  UNL1        0.0203
      8 C         138.4893  142.7396  157.2393 C.ar    1  UNL1        0.0985
      9 N         138.2089  142.7937  158.7118 N.ar    1  UNL1       -0.2461
     10 C         138.4167  141.5742  159.5601 C.ar    1  UNL1        0.0817
     11 C         138.0796  141.8422  160.9970 C.3     1  UNL1        0.1498
     12 O         137.6131  143.2336  161.3074 O.3     1  UNL1       -0.3785
     13 C         138.1474  140.9028  162.1645 C.3     1  UNL1        0.0368
     14 H         137.6036  143.7606  160.4932 H       1  UNL1        0.2108
     15 N         140.5491  140.6970  167.0626 N.pl3   1  UNL1       -0.3049
     16 C         139.2854  139.9120  167.2539 C.3     1  UNL1        0.1081
     17 C         138.6113  139.2765  166.0742 C.3     1  UNL1        0.0938
     18 N         139.2011  139.4260  164.7031 N.3     1  UNL1       -0.2698
     19 C         140.4649  140.2110  164.5118 C.3     1  UNL1        0.0938
     20 C         141.1389  140.8465  165.6916 C.3     1  UNL1        0.1081
     21 C         142.7587  139.2509  168.4863 C.3     1  UNL1        0.0323
     22 C         142.3280  140.6094  168.9542 C.ar    1  UNL1       -0.0085
     23 C         143.0021  141.2449  170.1340 C.ar    1  UNL1       -0.0030
     24 C         142.5713  142.6033  170.6019 C.ar    1  UNL1       -0.0002
     25 C         141.4666  143.3264  169.8901 C.ar    1  UNL1        0.0012
     26 C         140.7925  142.6909  168.7103 C.ar    1  UNL1        0.0142
     27 C         141.2232  141.3325  168.2424 C.ar    1  UNL1        0.0439
@<TRIPOS>BOND
     1    21    22    1
     2    22    23   ar
     3    23    24   ar
     4    24    25   ar
     5    25    26   ar
     6    26    27   ar
     7    27    15    1
     8    15    16    1
     9    16    17    1
    10    17    18    1
    11    18     1    1
    12     2     1    1
    13     2     3    1
    14     3     4    1
    15     4     5    1
    16     5     6   ar
    17     6     7   ar
    18     7     8   ar
    19     8     9   ar
    20     9    10   ar
    21    10    11    1
    22    11    12    1
    23    11    13    1
    24    18    19    1
    25    19    20    1
    26    27    22   ar
    27    20    15    1
    28    13     2    1
    29    10     5   ar
    30    12    14    1
@<TRIPOS>MOLECULE
*****
 27 30 0 0 0
SMALL
GASTEIGER

@<TRIPOS>ATOM
      1 C         139.0187  137.5672  163.5500 C.3     1  UNL1        0.0723
      2 C         139.0587  138.2282  162.2041 C.3     1  UNL1        0.0191
      3 C         137.8203  138.9772  161.8098 C.3     1  UNL1        0.0062
      4 C         137.5492  139.7357  160.5445 C.3     1  UNL1        0.0277
      5 C         138.4494  139.9327  159.3609 C.ar    1  UNL1       -0.0063
      6 C         137.7872  140.7616  158.3006 C.ar    1  UNL1       -0.0014
      7 C         138.5187  141.0776  157.0298 C.ar    1  UNL1        0.0203
      8 C         139.9125  140.5646  156.8193 C.ar    1  UNL1        0.0985
      9 N         140.5747  139.7357  157.8796 N.ar    1  UNL1       -0.2461
     10 C         139.8432  139.4198  159.1504 C.ar    1  UNL1        0.0817
     11 C         140.6809  138.5831  160.0715 C.3     1  UNL1        0.1498
     12 O         142.0486  138.2301  159.5668 O.3     1  UNL1       -0.3785
     13 C         140.3318  138.0528  161.4305 C.3     1  UNL1        0.0368
     14 H         142.1781  138.6165  158.6866 H       1  UNL1        0.2108
     15 N         140.2377  139.8647  167.2223 N.pl3   1  UNL1       -0.3049
     16 C         141.2751  139.4345  166.2281 C.3     1  UNL1        0.1081
     17 C         140.8688  138.6686  165.0039 C.3     1  UNL1        0.0938
     18 N         139.4250  138.3330  164.7741 N.3     1  UNL1       -0.2698
     19 C         138.3875  138.7633  165.7684 C.3     1  UNL1        0.0938
     20 C         138.7939  139.5292  166.9924 C.3     1  UNL1        0.1081
     21 C         140.4228  142.8575  167.1265 C.3     1  UNL1        0.0323
     22 C         140.7366  142.1270  168.3985 C.ar    1  UNL1       -0.0085
     23 C         141.1429  142.8928  169.6226 C.ar    1  UNL1       -0.0030
     24 C         141.4566  142.1623  170.8945 C.ar    1  UNL1       -0.0002
     25 C         141.3640  140.6659  170.9424 C.ar    1  UNL1        0.0012
     26 C         140.9577  139.9001  169.7184 C.ar    1  UNL1        0.0142
     27 C         140.6440  140.6306  168.4464 C.ar    1  UNL1        0.0439
@<TRIPOS>BOND
     1    21    22    1
     2    22    23   ar
     3    23    24   ar
     4    24    25   ar
     5    25    26   ar
     6    26    27   ar
     7    27    15    1
     8    15    16    1
     9    16    17    1
    10    17    18    1
    11    18     1    1
    12     2     1    1
    13     2     3    1
    14     3     4    1
    15     4     5    1
    16     5     6   ar
    17     6     7   ar
    18     7     8   ar
    19     8     9   ar
    20     9    10   ar
    21    10    11    1
    22    11    12    1
    23    11    13    1
    24    18    19    1
    25    19    20    1
    26    27    22   ar
    27    20    15    1
    28    13     2    1
    29    10     5   ar
    30    12    14    1
@<TRIPOS>MOLECULE
*****
 27 30 0 0 0
SMALL
GASTEIGER

@<TRIPOS>ATOM
      1 C         139.2901  139.2193  162.7022 C.3     1  UNL1        0.0723
      2 C         139.3493  139.5650  164.1606 C.3     1  UNL1        0.0191
      3 C         140.2660  140.6951  164.5248 C.3     1  UNL1        0.0062
      4 C         140.5438  141.2742  165.8803 C.3     1  UNL1        0.0277
      5 C         139.9735  140.8663  167.2064 C.ar    1  UNL1       -0.0063
      6 C         140.5193  141.7097  168.3204 C.ar    1  UNL1       -0.0014
      7 C         140.0761  141.4652  169.7324 C.ar    1  UNL1        0.0203
      8 C         139.0872  140.3774  170.0304 C.ar    1  UNL1        0.0985
      9 N         138.5415  139.5341  168.9165 N.ar    1  UNL1       -0.2461
     10 C         138.9846  139.7786  167.5045 C.ar    1  UNL1        0.0817
     11 C         138.3218  138.8300  166.5500 C.3     1  UNL1        0.1498
     12 O         137.3709  137.8465  167.1651 O.3     1  UNL1       -0.3785
     13 C         138.4840  138.7349  165.0619 C.3     1  UNL1        0.0368
     14 H         137.3353  137.9876  168.1242 H       1  UNL1        0.2108
     15 N         139.5710  142.4721  159.6053 N.pl3   1  UNL1       -0.3049
     16 C         138.3635  142.3816  160.4906 C.3     1  UNL1        0.1081
     17 C         138.2698  141.2973  161.5229 C.3     1  UNL1        0.0938
     18 N         139.3837  140.3035  161.6699 N.3     1  UNL1       -0.2698
     19 C         140.5912  140.3940  160.7846 C.3     1  UNL1        0.0938
     20 C         140.6848  141.4782  159.7523 C.3     1  UNL1        0.1081
     21 C         140.7172  145.1458  160.3382 C.3     1  UNL1        0.0323
     22 C         140.2377  144.8933  158.9394 C.ar    1  UNL1       -0.0085
     23 C         140.3314  145.9775  157.9072 C.ar    1  UNL1       -0.0030
     24 C         139.8520  145.7249  156.5086 C.ar    1  UNL1       -0.0002
     25 C         139.2789  144.3880  156.1421 C.ar    1  UNL1        0.0012
     26 C         139.1852  143.3037  157.1744 C.ar    1  UNL1        0.0142
     27 C         139.6646  143.5564  158.5730 C.ar    1  UNL1        0.0439
@<TRIPOS>BOND
     1    21    22    1
     2    22    23   ar
     3    23    24   ar
     4    24    25   ar
     5    25    26   ar
     6    26    27   ar
     7    27    15    1
     8    15    16    1
     9    16    17    1
    10    17    18    1
    11    18     1    1
    12     2     1    1
    13     2     3    1
    14     3     4    1
    15     4     5    1
    16     5     6   ar
    17     6     7   ar
    18     7     8   ar
    19     8     9   ar
    20     9    10   ar
    21    10    11    1
    22    11    12    1
    23    11    13    1
    24    18    19    1
    25    19    20    1
    26    27    22   ar
    27    20    15    1
    28    13     2    1
    29    10     5   ar
    30    12    14    1
@<TRIPOS>MOLECULE
*****
 27 30 0 0 0
SMALL
GASTEIGER

@<TRIPOS>ATOM
      1 C         137.9201  140.9989  163.2811 C.3     1  UNL1        0.0723
      2 C         138.5669  140.9788  164.6343 C.3     1  UNL1        0.0191
      3 C         139.5853  142.0512  164.8849 C.3     1  UNL1        0.0062
      4 C         140.3981  142.2986  166.1211 C.3     1  UNL1        0.0277
      5 C         140.3933  141.5347  167.4120 C.ar    1  UNL1       -0.0063
      6 C         141.3629  142.1173  168.3971 C.ar    1  UNL1       -0.0014
      7 C         141.5137  141.4998  169.7558 C.ar    1  UNL1        0.0203
      8 C         140.6948  140.2999  170.1293 C.ar    1  UNL1        0.0985
      9 N         139.7252  139.7173  169.1442 N.ar    1  UNL1       -0.2461
     10 C         139.5745  140.3347  167.7856 C.ar    1  UNL1        0.0817
     11 C         138.5582  139.6023  166.9605 C.3     1  UNL1        0.1498
     12 O         137.9038  138.4280  167.6258 O.3     1  UNL1       -0.3785
     13 C         138.1098  139.8889  165.5580 C.3     1  UNL1        0.0368
     14 H         138.2584  138.3257  168.5229 H       1  UNL1        0.2108
     15 N         139.9421  139.0042  159.7908 N.pl3   1  UNL1       -0.3049
     16 C         139.2599  138.1737  160.8371 C.3     1  UNL1        0.1081
     17 C         138.5859  138.8386  162.0006 C.3     1  UNL1        0.0938
     18 N         138.5941  140.3340  162.1177 N.3     1  UNL1       -0.2698
     19 C         139.2763  141.1645  161.0713 C.3     1  UNL1        0.0938
     20 C         139.9503  140.4996  159.9079 C.3     1  UNL1        0.1081
     21 C         142.8780  138.3980  159.9043 C.3     1  UNL1        0.0323
     22 C         142.0841  138.0362  158.6840 C.ar    1  UNL1       -0.0085
     23 C         142.7582  137.3714  157.5206 C.ar    1  UNL1       -0.0030
     24 C         141.9643  137.0096  156.3005 C.ar    1  UNL1       -0.0002
     25 C         140.4963  137.3127  156.2438 C.ar    1  UNL1        0.0012
     26 C         139.8223  137.9776  157.4072 C.ar    1  UNL1        0.0142
     27 C         140.6162  138.3393  158.6273 C.ar    1  UNL1        0.0439
@<TRIPOS>BOND
     1    21    22    1
     2    22    23   ar
     3    23    24   ar
     4    24    25   ar
     5    25    26   ar
     6    26    27   ar
     7    27    15    1
     8    15    16    1
     9    16    17    1
    10    17    18    1
    11    18     1    1
    12     2     1    1
    13     2     3    1
    14     3     4    1
    15     4     5    1
    16     5     6   ar
    17     6     7   ar
    18     7     8   ar
    19     8     9   ar
    20     9    10   ar
    21    10    11    1
    22    11    12    1
    23    11    13    1
    24    18    19    1
    25    19    20    1
    26    27    22   ar
    27    20    15    1
    28    13     2    1
    29    10     5   ar
    30    12    14    1
@<TRIPOS>MOLECULE
*****
 27 30 0 0 0
SMALL
GASTEIGER

@<TRIPOS>ATOM
      1 C         142.6279  137.7168  157.7477 C.3     1  UNL1        0.0723
      2 C         142.5060  136.3531  157.1350 C.3     1  UNL1        0.0191
      3 C         141.5674  136.2446  155.9699 C.3     1  UNL1        0.0062
      4 C         141.2298  135.0344  155.1506 C.3     1  UNL1        0.0277
      5 C         141.7474  133.6338  155.2937 C.ar    1  UNL1       -0.0063
      6 C         141.1503  132.7210  154.2641 C.ar    1  UNL1       -0.0014
      7 C         141.5363  131.2719  154.2325 C.ar    1  UNL1        0.0203
      8 C         142.5194  130.7356  155.2305 C.ar    1  UNL1        0.0985
      9 N         143.1165  131.6484  156.2601 N.ar    1  UNL1       -0.2461
     10 C         142.7305  133.0975  156.2917 C.ar    1  UNL1        0.0817
     11 C         143.4387  133.8294  157.3930 C.3     1  UNL1        0.1498
     12 O         144.3700  133.0031  158.2296 O.3     1  UNL1       -0.3785
     13 C         143.3389  135.2783  157.7683 C.3     1  UNL1        0.0368
     14 H         144.3649  132.0872  157.9104 H       1  UNL1        0.2108
     15 N         140.7103  138.5752  161.7271 N.pl3   1  UNL1       -0.3049
     16 C         142.1231  138.0749  161.6678 C.3     1  UNL1        0.1081
     17 C         142.7624  137.7888  160.3413 C.3     1  UNL1        0.0938
     18 N         141.9888  138.0029  159.0742 N.3     1  UNL1       -0.2698
     19 C         140.5758  138.5032  159.1335 C.3     1  UNL1        0.0938
     20 C         139.9367  138.7894  160.4600 C.3     1  UNL1        0.1081
     21 C         140.8341  141.3392  162.8867 C.3     1  UNL1        0.0323
     22 C         140.1330  140.2433  163.6334 C.ar    1  UNL1       -0.0085
     23 C         139.4938  140.5295  164.9599 C.ar    1  UNL1       -0.0030
     24 C         138.7926  139.4337  165.7065 C.ar    1  UNL1       -0.0002
     25 C         138.7307  138.0516  165.1267 C.ar    1  UNL1        0.0012
     26 C         139.3699  137.7655  163.8003 C.ar    1  UNL1        0.0142
     27 C         140.0711  138.8613  163.0536 C.ar    1  UNL1        0.0439
@<TRIPOS>BOND
     1    21    22    1
     2    22    23   ar
     3    23    24   ar
     4    24    25   ar
     5    25    26   ar
     6    26    27   ar
     7    27    15    1
     8    15    16    1
     9    16    17    1
    10    17    18    1
    11    18     1    1
    12     2     1    1
    13     2     3    1
    14     3     4    1
    15     4     5    1
    16     5     6   ar
    17     6     7   ar
    18     7     8   ar
    19     8     9   ar
    20     9    10   ar
    21    10    11    1
    22    11    12    1
    23    11    13    1
    24    18    19    1
    25    19    20    1
    26    27    22   ar
    27    20    15    1
    28    13     2    1
    29    10     5   ar
    30    12    14    1
