@<TRIPOS>MOLECULE
*****
 38 42 0 0 0
SMALL
GASTEIGER

@<TRIPOS>ATOM
      1 O         140.1435  137.6801  161.7190 O.2     1  UNL1       -0.2744
      2 C         141.3091  137.5214  162.6498 C.2     1  UNL1        0.2320
      3 N         142.6920  137.8718  162.1863 N.am    1  UNL1       -0.2639
      4 H         143.4570  137.7676  162.7972 H       1  UNL1        0.1567
      5 C         142.9094  138.3807  160.7923 C.ar    1  UNL1        0.1655
      6 N         142.5698  137.6534  159.5251 N.ar    1  UNL1       -0.2239
      7 C         142.9550  138.5295  158.3702 C.ar    1  UNL1        0.0913
      8 C         143.5327  139.7984  158.9235 C.ar    1  UNL1        0.0573
      9 S         143.5045  139.7065  160.4204 S.2     1  UNL1       -0.0508
     10 C         142.7914  138.1955  156.9170 C.ar    1  UNL1        0.0404
     11 C         142.5271  139.1744  155.8116 C.ar    1  UNL1        0.1021
     12 N         142.4357  138.4078  154.5256 N.ar    1  UNL1       -0.2269
     13 C         142.6433  136.9550  154.8362 C.ar    1  UNL1        0.1407
     14 N         142.6607  135.7347  153.9641 N.ar    1  UNL1       -0.3356
     15 C         142.8978  134.3833  154.5700 C.ar    1  UNL1        0.1035
     16 C         143.1177  134.2521  156.0480 C.ar    1  UNL1        0.1572
     17 F         143.3549  132.9005  156.6539 F       1  UNL1       -0.2026
     18 C         143.1004  135.4723  156.9201 C.ar    1  UNL1        0.0343
     19 C         142.8632  136.8238  156.3142 C.ar    1  UNL1        0.0392
     20 H         142.5164  135.8209  152.9940 H       1  UNL1        0.1675
     21 C         141.0917  137.0124  164.0439 C.3     1  UNL1        0.1118
     22 C         140.3334  137.8435  165.0361 C.ar    1  UNL1       -0.0101
     23 C         138.8686  137.6028  165.2520 C.ar    1  UNL1       -0.0036
     24 C         138.1103  138.4339  166.2442 C.ar    1  UNL1        0.0028
     25 C         138.8167  139.5056  167.0203 C.ar    1  UNL1        0.0369
     26 C         140.2815  139.7463  166.8043 C.ar    1  UNL1        0.1382
     27 C         141.0398  138.9153  165.8122 C.ar    1  UNL1        0.0331
     28 O         140.9879  140.8180  167.5805 O.3     1  UNL1       -0.4755
     29 C         141.9359  141.7479  166.8830 C.3     1  UNL1        0.2054
     30 C         141.4078  142.7929  165.9453 C.3     1  UNL1        0.0473
     31 C         139.9755  143.2287  166.0379 C.3     1  UNL1        0.0039
     32 C         139.1278  143.2861  164.8017 C.3     1  UNL1        0.0029
     33 C         139.0093  144.5684  164.0325 C.3     1  UNL1        0.0171
     34 C         138.1615  144.6259  162.7963 C.3     1  UNL1        0.0686
     35 N         137.4323  143.4011  162.3294 N.3     1  UNL1       -0.2975
     36 C         137.5508  142.1188  163.0987 C.3     1  UNL1        0.0686
     37 C         138.3985  142.0613  164.3348 C.3     1  UNL1        0.0171
     38 H         137.7581  143.2076  161.3824 H       1  UNL1        0.1232
@<TRIPOS>BOND
     1     1     2    2
     2     2    21    1
     3    21    22    1
     4    22    23   ar
     5    23    24   ar
     6    24    25   ar
     7    25    26   ar
     8    26    28    1
     9    28    29    1
    10    29    30    1
    11    30    31    1
    12    31    32    1
    13    32    33    1
    14    33    34    1
    15    34    35    1
    16    35    36    1
    17    36    37    1
    18    26    27   ar
    19     2     3   am
    20     3     5    1
    21     5     6   ar
    22     6     7   ar
    23     7    10    1
    24    10    11   ar
    25    11    12   ar
    26    12    13   ar
    27    13    14   ar
    28    14    15   ar
    29    15    16   ar
    30    16    17    1
    31    16    18   ar
    32    18    19   ar
    33     7     8   ar
    34     8     9   ar
    35    27    22   ar
    36     9     5   ar
    37    37    32    1
    38    19    10   ar
    39    19    13    1
    40    35    38    1
    41     3     4    1
    42    14    20    1
@<TRIPOS>MOLECULE
*****
 38 42 0 0 0
SMALL
GASTEIGER

@<TRIPOS>ATOM
      1 O         143.1692  137.4659  160.8870 O.2     1  UNL1       -0.2744
      2 C         143.4629  138.8642  160.4303 C.2     1  UNL1        0.2320
      3 N         143.0876  139.2946  159.0433 N.am    1  UNL1       -0.2639
      4 H         143.2803  140.2123  158.7435 H       1  UNL1        0.1567
      5 C         142.4188  138.3267  158.1129 C.ar    1  UNL1        0.1655
      6 N         143.0787  137.1739  157.4162 N.ar    1  UNL1       -0.2239
      7 C         142.0403  136.4763  156.5885 C.ar    1  UNL1        0.0913
      8 C         140.7385  137.1980  156.7736 C.ar    1  UNL1        0.0573
      9 S         140.9723  138.3416  157.7157 S.2     1  UNL1       -0.0508
     10 C         142.2644  135.2691  155.7269 C.ar    1  UNL1        0.0404
     11 C         141.6539  135.0221  154.3792 C.ar    1  UNL1        0.1021
     12 N         142.1505  133.6972  153.8812 N.ar    1  UNL1       -0.2269
     13 C         143.0679  133.1253  154.9211 C.ar    1  UNL1        0.1407
     14 N         143.8482  131.8455  154.9767 N.ar    1  UNL1       -0.3356
     15 C         144.6989  131.5372  156.1730 C.ar    1  UNL1        0.1035
     16 C         144.7693  132.5087  157.3137 C.ar    1  UNL1        0.1572
     17 F         145.6200  132.2003  158.5101 F       1  UNL1       -0.2026
     18 C         143.9890  133.7885  157.2582 C.ar    1  UNL1        0.0343
     19 C         143.1382  134.0968  156.0619 C.ar    1  UNL1        0.0392
     20 H         143.8020  131.2079  154.2280 H       1  UNL1        0.1675
     21 C         144.1318  139.8322  161.3607 C.3     1  UNL1        0.1118
     22 C         143.5362  140.1100  162.7091 C.ar    1  UNL1       -0.0101
     23 C         144.0400  139.3770  163.9170 C.ar    1  UNL1       -0.0036
     24 C         143.4444  139.6548  165.2654 C.ar    1  UNL1        0.0028
     25 C         142.3450  140.6656  165.4058 C.ar    1  UNL1        0.0369
     26 C         141.8412  141.3985  164.1980 C.ar    1  UNL1        0.1382
     27 C         142.4367  141.1207  162.8496 C.ar    1  UNL1        0.0331
     28 O         140.7418  142.4092  164.3384 O.3     1  UNL1       -0.4755
     29 C         139.5840  142.1360  165.2521 C.3     1  UNL1        0.2054
     30 C         138.4656  141.2445  164.7998 C.3     1  UNL1        0.0473
     31 C         138.4931  139.7813  165.1286 C.3     1  UNL1        0.0039
     32 C         139.3418  138.8465  164.3188 C.3     1  UNL1        0.0029
     33 C         139.3452  138.9428  162.8219 C.3     1  UNL1        0.0171
     34 C         140.1939  138.0080  162.0120 C.3     1  UNL1        0.0686
     35 N         141.0393  136.9769  162.6991 N.3     1  UNL1       -0.2975
     36 C         141.0360  136.8806  164.1961 C.3     1  UNL1        0.0686
     37 C         140.1873  137.8154  165.0059 C.3     1  UNL1        0.0171
     38 H         142.0039  137.1517  162.4174 H       1  UNL1        0.1232
@<TRIPOS>BOND
     1     1     2    2
     2     2    21    1
     3    21    22    1
     4    22    23   ar
     5    23    24   ar
     6    24    25   ar
     7    25    26   ar
     8    26    28    1
     9    28    29    1
    10    29    30    1
    11    30    31    1
    12    31    32    1
    13    32    33    1
    14    33    34    1
    15    34    35    1
    16    35    36    1
    17    36    37    1
    18    26    27   ar
    19     2     3   am
    20     3     5    1
    21     5     6   ar
    22     6     7   ar
    23     7    10    1
    24    10    11   ar
    25    11    12   ar
    26    12    13   ar
    27    13    14   ar
    28    14    15   ar
    29    15    16   ar
    30    16    17    1
    31    16    18   ar
    32    18    19   ar
    33     7     8   ar
    34     8     9   ar
    35    27    22   ar
    36     9     5   ar
    37    37    32    1
    38    19    10   ar
    39    19    13    1
    40    35    38    1
    41     3     4    1
    42    14    20    1
@<TRIPOS>MOLECULE
*****
 38 42 0 0 0
SMALL
GASTEIGER

@<TRIPOS>ATOM
      1 O         141.1015  136.8599  164.4512 O.2     1  UNL1       -0.2744
      2 C         140.6335  137.8627  163.4386 C.2     1  UNL1        0.2320
      3 N         139.7840  139.0219  163.8682 N.am    1  UNL1       -0.2639
      4 H         139.4768  139.6800  163.2036 H       1  UNL1        0.1567
      5 C         139.4026  139.1784  165.3103 C.ar    1  UNL1        0.1655
      6 N         140.2417  139.8113  166.3806 N.ar    1  UNL1       -0.2239
      7 C         139.4729  139.7536  167.6673 C.ar    1  UNL1        0.0913
      8 C         138.1586  139.0850  167.3923 C.ar    1  UNL1        0.0573
      9 S         138.1151  138.7296  165.9356 S.2     1  UNL1       -0.0508
     10 C         139.9369  140.2731  168.9957 C.ar    1  UNL1        0.0404
     11 C         139.2664  140.0391  170.3169 C.ar    1  UNL1        0.1021
     12 N         140.0679  140.7393  171.3739 N.ar    1  UNL1       -0.2269
     13 C         141.2338  141.4061  170.7060 C.ar    1  UNL1        0.1407
     14 N         142.3587  142.2383  171.2462 N.ar    1  UNL1       -0.3356
     15 C         143.4026  142.7825  170.3166 C.ar    1  UNL1        0.1035
     16 C         143.3216  142.4944  168.8468 C.ar    1  UNL1        0.1572
     17 F         144.3655  143.0386  167.9172 F       1  UNL1       -0.2026
     18 C         142.1967  141.6621  168.3065 C.ar    1  UNL1        0.0343
     19 C         141.1528  141.1180  169.2361 C.ar    1  UNL1        0.0392
     20 H         142.4118  142.4274  172.2109 H       1  UNL1        0.1675
     21 C         141.0148  137.7062  161.9963 C.3     1  UNL1        0.1118
     22 C         141.9548  138.6858  161.3585 C.ar    1  UNL1       -0.0101
     23 C         141.7449  139.1085  159.9346 C.ar    1  UNL1       -0.0036
     24 C         142.6848  140.0882  159.2968 C.ar    1  UNL1        0.0028
     25 C         143.8346  140.6451  160.0828 C.ar    1  UNL1        0.0369
     26 C         144.0445  140.2224  161.5066 C.ar    1  UNL1        0.1382
     27 C         143.1046  139.2428  162.1445 C.ar    1  UNL1        0.0331
     28 O         145.1943  140.7794  162.2927 O.3     1  UNL1       -0.4755
     29 C         145.1594  142.2020  162.7670 C.3     1  UNL1        0.2054
     30 C         145.0415  142.5015  164.2321 C.3     1  UNL1        0.0473
     31 C         143.6915  142.5325  164.8850 C.3     1  UNL1        0.0039
     32 C         142.5227  143.1345  164.1626 C.3     1  UNL1        0.0029
     33 C         142.4458  144.6197  163.9673 C.3     1  UNL1        0.0171
     34 C         141.2771  145.2217  163.2449 C.3     1  UNL1        0.0686
     35 N         140.1853  144.3384  162.7179 N.3     1  UNL1       -0.2975
     36 C         140.2622  142.8531  162.9133 C.3     1  UNL1        0.0686
     37 C         141.4309  142.2512  163.6356 C.3     1  UNL1        0.0171
     38 H         140.1348  144.5009  161.7122 H       1  UNL1        0.1232
@<TRIPOS>BOND
     1     1     2    2
     2     2    21    1
     3    21    22    1
     4    22    23   ar
     5    23    24   ar
     6    24    25   ar
     7    25    26   ar
     8    26    28    1
     9    28    29    1
    10    29    30    1
    11    30    31    1
    12    31    32    1
    13    32    33    1
    14    33    34    1
    15    34    35    1
    16    35    36    1
    17    36    37    1
    18    26    27   ar
    19     2     3   am
    20     3     5    1
    21     5     6   ar
    22     6     7   ar
    23     7    10    1
    24    10    11   ar
    25    11    12   ar
    26    12    13   ar
    27    13    14   ar
    28    14    15   ar
    29    15    16   ar
    30    16    17    1
    31    16    18   ar
    32    18    19   ar
    33     7     8   ar
    34     8     9   ar
    35    27    22   ar
    36     9     5   ar
    37    37    32    1
    38    19    10   ar
    39    19    13    1
    40    35    38    1
    41     3     4    1
    42    14    20    1
@<TRIPOS>MOLECULE
*****
 38 42 0 0 0
SMALL
GASTEIGER

@<TRIPOS>ATOM
      1 O         138.6347  138.1895  161.5925 O.2     1  UNL1       -0.2744
      2 C         138.3940  139.6278  161.9438 C.2     1  UNL1        0.2320
      3 N         138.7551  140.7086  160.9684 N.am    1  UNL1       -0.2639
      4 H         138.5971  141.6526  161.1990 H       1  UNL1        0.1567
      5 C         139.3568  140.3513  159.6418 C.ar    1  UNL1        0.1655
      6 N         140.7963  140.0138  159.3887 N.ar    1  UNL1       -0.2239
      7 C         140.9539  139.7226  157.9257 C.ar    1  UNL1        0.0913
      8 C         139.6118  139.8800  157.2745 C.ar    1  UNL1        0.0573
      9 S         138.6248  140.2685  158.3351 S.2     1  UNL1       -0.0508
     10 C         142.2296  139.3409  157.2351 C.ar    1  UNL1        0.0404
     11 C         143.4067  140.2398  156.9976 C.ar    1  UNL1        0.1021
     12 N         144.4567  139.4477  156.2765 N.ar    1  UNL1       -0.2269
     13 C         143.9286  138.0592  156.0683 C.ar    1  UNL1        0.1407
     14 N         144.5232  136.8466  155.4158 N.ar    1  UNL1       -0.3356
     15 C         143.7414  135.5679  155.3559 C.ar    1  UNL1        0.1035
     16 C         142.3649  135.5018  155.9483 C.ar    1  UNL1        0.1572
     17 F         141.5831  134.2230  155.8883 F       1  UNL1       -0.2026
     18 C         141.7703  136.7145  156.6008 C.ar    1  UNL1        0.0343
     19 C         142.5521  137.9932  156.6608 C.ar    1  UNL1        0.0392
     20 H         145.4266  136.8899  155.0270 H       1  UNL1        0.1675
     21 C         137.7922  139.9852  163.2705 C.3     1  UNL1        0.1118
     22 C         138.6797  140.2367  164.4533 C.ar    1  UNL1       -0.0101
     23 C         138.4436  139.4997  165.7383 C.ar    1  UNL1       -0.0036
     24 C         139.3312  139.7512  166.9211 C.ar    1  UNL1        0.0028
     25 C         140.4548  140.7397  166.8190 C.ar    1  UNL1        0.0369
     26 C         140.6909  141.4767  165.5340 C.ar    1  UNL1        0.1382
     27 C         139.8034  141.2252  164.3512 C.ar    1  UNL1        0.0331
     28 O         141.8145  142.4651  165.4318 O.3     1  UNL1       -0.4755
     29 C         143.2151  142.0458  165.7670 C.3     1  UNL1        0.2054
     30 C         143.9478  141.0928  164.8697 C.3     1  UNL1        0.0473
     31 C         143.8691  139.6160  165.1201 C.3     1  UNL1        0.0039
     32 C         142.9726  138.7590  164.2763 C.3     1  UNL1        0.0029
     33 C         143.1488  138.7284  162.7870 C.3     1  UNL1        0.0171
     34 C         142.2524  137.8714  161.9430 C.3     1  UNL1        0.0686
     35 N         141.1798  137.0451  162.5885 N.3     1  UNL1       -0.2975
     36 C         141.0036  137.0757  164.0779 C.3     1  UNL1        0.0686
     37 C         141.9000  137.9327  164.9217 C.3     1  UNL1        0.0171
     38 H         141.3623  136.0745  162.3335 H       1  UNL1        0.1232
@<TRIPOS>BOND
     1     1     2    2
     2     2    21    1
     3    21    22    1
     4    22    23   ar
     5    23    24   ar
     6    24    25   ar
     7    25    26   ar
     8    26    28    1
     9    28    29    1
    10    29    30    1
    11    30    31    1
    12    31    32    1
    13    32    33    1
    14    33    34    1
    15    34    35    1
    16    35    36    1
    17    36    37    1
    18    26    27   ar
    19     2     3   am
    20     3     5    1
    21     5     6   ar
    22     6     7   ar
    23     7    10    1
    24    10    11   ar
    25    11    12   ar
    26    12    13   ar
    27    13    14   ar
    28    14    15   ar
    29    15    16   ar
    30    16    17    1
    31    16    18   ar
    32    18    19   ar
    33     7     8   ar
    34     8     9   ar
    35    27    22   ar
    36     9     5   ar
    37    37    32    1
    38    19    10   ar
    39    19    13    1
    40    35    38    1
    41     3     4    1
    42    14    20    1
@<TRIPOS>MOLECULE
*****
 38 42 0 0 0
SMALL
GASTEIGER

@<TRIPOS>ATOM
      1 O         139.4103  146.3456  161.3169 O.2     1  UNL1       -0.2744
      2 C         139.8917  145.1279  162.0486 C.2     1  UNL1        0.2320
      3 N         140.1052  143.8422  161.3059 N.am    1  UNL1       -0.2639
      4 H         140.4211  143.0430  161.7861 H       1  UNL1        0.1567
      5 C         139.8372  143.7743  159.8317 C.ar    1  UNL1        0.1655
      6 N         140.4596  144.6457  158.7813 N.ar    1  UNL1       -0.2239
      7 C         139.9068  144.2331  157.4493 C.ar    1  UNL1        0.0913
      8 C         138.9428  143.1066  157.6764 C.ar    1  UNL1        0.0573
      9 S         138.8997  142.8231  159.1488 S.2     1  UNL1       -0.0508
     10 C         140.2567  144.8403  156.1231 C.ar    1  UNL1        0.0404
     11 C         141.0381  144.1765  155.0282 C.ar    1  UNL1        0.1021
     12 N         141.1509  145.1439  153.8873 N.ar    1  UNL1       -0.2269
     13 C         140.4391  146.4054  154.2771 C.ar    1  UNL1        0.1407
     14 N         140.2229  147.7008  153.5524 N.ar    1  UNL1       -0.3356
     15 C         139.4540  148.8084  154.2094 C.ar    1  UNL1        0.1035
     16 C         138.9013  148.6208  155.5912 C.ar    1  UNL1        0.1572
     17 F         138.1324  149.7286  156.2483 F       1  UNL1       -0.2026
     18 C         139.1176  147.3255  156.3160 C.ar    1  UNL1        0.0343
     19 C         139.8865  146.2178  155.6589 C.ar    1  UNL1        0.0392
     20 H         140.5856  147.8239  152.6455 H       1  UNL1        0.1675
     21 C         140.1597  145.1958  163.5229 C.3     1  UNL1        0.1118
     22 C         141.3719  144.5239  164.0965 C.ar    1  UNL1       -0.0101
     23 C         142.7422  145.0284  163.7530 C.ar    1  UNL1       -0.0036
     24 C         143.9545  144.3565  164.3267 C.ar    1  UNL1        0.0028
     25 C         143.7964  143.1801  165.2438 C.ar    1  UNL1        0.0369
     26 C         142.4262  142.6756  165.5873 C.ar    1  UNL1        0.1382
     27 C         141.2140  143.3474  165.0137 C.ar    1  UNL1        0.0331
     28 O         142.2682  141.4992  166.5044 O.3     1  UNL1       -0.4755
     29 C         141.9191  140.1525  165.9436 C.3     1  UNL1        0.2054
     30 C         140.5569  139.5711  166.1814 C.3     1  UNL1        0.0473
     31 C         139.3414  140.4445  166.0851 C.3     1  UNL1        0.0039
     32 C         138.6455  140.6186  164.7676 C.3     1  UNL1        0.0029
     33 C         138.0028  141.9302  164.4264 C.3     1  UNL1        0.0171
     34 C         137.3070  142.1044  163.1090 C.3     1  UNL1        0.0686
     35 N         137.2538  140.9667  162.1328 N.3     1  UNL1       -0.2975
     36 C         137.8965  139.6550  162.4741 C.3     1  UNL1        0.0686
     37 C         138.5924  139.4809  163.7915 C.3     1  UNL1        0.0171
     38 H         137.6938  141.2955  161.2733 H       1  UNL1        0.1232
@<TRIPOS>BOND
     1     1     2    2
     2     2    21    1
     3    21    22    1
     4    22    23   ar
     5    23    24   ar
     6    24    25   ar
     7    25    26   ar
     8    26    28    1
     9    28    29    1
    10    29    30    1
    11    30    31    1
    12    31    32    1
    13    32    33    1
    14    33    34    1
    15    34    35    1
    16    35    36    1
    17    36    37    1
    18    26    27   ar
    19     2     3   am
    20     3     5    1
    21     5     6   ar
    22     6     7   ar
    23     7    10    1
    24    10    11   ar
    25    11    12   ar
    26    12    13   ar
    27    13    14   ar
    28    14    15   ar
    29    15    16   ar
    30    16    17    1
    31    16    18   ar
    32    18    19   ar
    33     7     8   ar
    34     8     9   ar
    35    27    22   ar
    36     9     5   ar
    37    37    32    1
    38    19    10   ar
    39    19    13    1
    40    35    38    1
    41     3     4    1
    42    14    20    1
@<TRIPOS>MOLECULE
*****
 38 42 0 0 0
SMALL
GASTEIGER

@<TRIPOS>ATOM
      1 O         142.1395  139.6871  162.4445 O.2     1  UNL1       -0.2744
      2 C         143.5671  139.2506  162.5909 C.2     1  UNL1        0.2320
      3 N         144.3467  138.8185  161.3846 N.am    1  UNL1       -0.2639
      4 H         145.2837  138.5320  161.4807 H       1  UNL1        0.1567
      5 C         143.6989  138.8230  160.0318 C.ar    1  UNL1        0.1655
      6 N         143.0530  137.6478  159.3596 N.ar    1  UNL1       -0.2239
      7 C         142.5381  138.1018  158.0260 C.ar    1  UNL1        0.0913
      8 C         142.8657  139.5577  157.8738 C.ar    1  UNL1        0.0573
      9 S         143.5831  140.0033  159.1134 S.2     1  UNL1       -0.0508
     10 C         141.8213  137.2497  157.0209 C.ar    1  UNL1        0.0404
     11 C         140.5409  137.5990  156.3220 C.ar    1  UNL1        0.1021
     12 N         140.1875  136.4638  155.4074 N.ar    1  UNL1       -0.2269
     13 C         141.2494  135.4129  155.5411 C.ar    1  UNL1        0.1407
     14 N         141.4274  134.0765  154.8837 N.ar    1  UNL1       -0.3356
     15 C         142.6151  133.2258  155.2234 C.ar    1  UNL1        0.1035
     16 C         143.6249  133.7115  156.2206 C.ar    1  UNL1        0.1572
     17 F         144.8128  132.8607  156.5604 F       1  UNL1       -0.2026
     18 C         143.4470  135.0479  156.8781 C.ar    1  UNL1        0.0343
     19 C         142.2592  135.8986  156.5383 C.ar    1  UNL1        0.0392
     20 H         140.7646  133.7577  154.2292 H       1  UNL1        0.1675
     21 C         144.2150  139.2462  163.9438 C.3     1  UNL1        0.1118
     22 C         143.6821  140.1285  165.0335 C.ar    1  UNL1       -0.0101
     23 C         143.9821  141.5982  165.0225 C.ar    1  UNL1       -0.0036
     24 C         143.4492  142.4807  166.1123 C.ar    1  UNL1        0.0028
     25 C         142.6163  141.8934  167.2129 C.ar    1  UNL1        0.0369
     26 C         142.3162  140.4238  167.2238 C.ar    1  UNL1        0.1382
     27 C         142.8491  139.5413  166.1341 C.ar    1  UNL1        0.0331
     28 O         141.4833  139.8365  168.3244 O.3     1  UNL1       -0.4755
     29 C         140.0111  140.1179  168.3825 C.3     1  UNL1        0.2054
     30 C         139.1044  139.5954  167.3078 C.3     1  UNL1        0.0473
     31 C         139.0513  140.2788  165.9736 C.3     1  UNL1        0.0039
     32 C         138.9796  139.4642  164.7161 C.3     1  UNL1        0.0029
     33 C         138.1398  139.9336  163.5653 C.3     1  UNL1        0.0171
     34 C         138.0680  139.1191  162.3077 C.3     1  UNL1        0.0686
     35 N         138.8361  137.8351  162.2010 N.3     1  UNL1       -0.2975
     36 C         139.6759  137.3656  163.3519 C.3     1  UNL1        0.0686
     37 C         139.7476  138.1802  164.6094 C.3     1  UNL1        0.0171
     38 H         139.4609  137.9313  161.4006 H       1  UNL1        0.1232
@<TRIPOS>BOND
     1     1     2    2
     2     2    21    1
     3    21    22    1
     4    22    23   ar
     5    23    24   ar
     6    24    25   ar
     7    25    26   ar
     8    26    28    1
     9    28    29    1
    10    29    30    1
    11    30    31    1
    12    31    32    1
    13    32    33    1
    14    33    34    1
    15    34    35    1
    16    35    36    1
    17    36    37    1
    18    26    27   ar
    19     2     3   am
    20     3     5    1
    21     5     6   ar
    22     6     7   ar
    23     7    10    1
    24    10    11   ar
    25    11    12   ar
    26    12    13   ar
    27    13    14   ar
    28    14    15   ar
    29    15    16   ar
    30    16    17    1
    31    16    18   ar
    32    18    19   ar
    33     7     8   ar
    34     8     9   ar
    35    27    22   ar
    36     9     5   ar
    37    37    32    1
    38    19    10   ar
    39    19    13    1
    40    35    38    1
    41     3     4    1
    42    14    20    1
@<TRIPOS>MOLECULE
*****
 38 42 0 0 0
SMALL
GASTEIGER

@<TRIPOS>ATOM
      1 O         140.6842  139.6355  162.9272 O.2     1  UNL1       -0.2744
      2 C         139.5073  140.4907  162.5619 C.2     1  UNL1        0.2320
      3 N         138.4807  140.8365  163.5994 N.am    1  UNL1       -0.2639
      4 H         137.7083  141.3978  163.3597 H       1  UNL1        0.1567
      5 C         138.6310  140.3271  165.0022 C.ar    1  UNL1        0.1655
      6 N         139.3176  141.0389  166.1300 N.ar    1  UNL1       -0.2239
      7 C         139.2320  140.1682  167.3483 C.ar    1  UNL1        0.0913
      8 C         138.4926  138.9181  166.9736 C.ar    1  UNL1        0.0573
      9 S         138.1212  139.0163  165.5236 S.2     1  UNL1       -0.0508
     10 C         139.7883  140.4909  168.7035 C.ar    1  UNL1        0.0404
     11 C         139.1539  140.1531  170.0201 C.ar    1  UNL1        0.1021
     12 N         140.0501  140.6614  171.1103 N.ar    1  UNL1       -0.2269
     13 C         141.2383  141.3133  170.4674 C.ar    1  UNL1        0.1407
     14 N         142.4467  141.9892  171.0443 N.ar    1  UNL1       -0.3356
     15 C         143.4933  142.5597  170.1338 C.ar    1  UNL1        0.1035
     16 C         143.3314  142.4543  168.6462 C.ar    1  UNL1        0.1572
     17 F         144.3780  143.0248  167.7356 F       1  UNL1       -0.2026
     18 C         142.1230  141.7784  168.0693 C.ar    1  UNL1        0.0343
     19 C         141.0765  141.2079  168.9799 C.ar    1  UNL1        0.0392
     20 H         142.5529  142.0584  172.0207 H       1  UNL1        0.1675
     21 C         139.3570  141.0002  161.1591 C.3     1  UNL1        0.1118
     22 C         140.4027  141.9014  160.5724 C.ar    1  UNL1       -0.0101
     23 C         140.0968  142.7037  159.3423 C.ar    1  UNL1       -0.0036
     24 C         141.1426  143.6050  158.7556 C.ar    1  UNL1        0.0028
     25 C         142.4941  143.7039  159.3988 C.ar    1  UNL1        0.0369
     26 C         142.7998  142.9016  160.6287 C.ar    1  UNL1        0.1382
     27 C         141.7542  142.0004  161.2155 C.ar    1  UNL1        0.0331
     28 O         144.1513  143.0006  161.2720 O.3     1  UNL1       -0.4755
     29 C         144.3765  143.9636  162.3997 C.3     1  UNL1        0.2054
     30 C         143.6320  143.7942  163.6908 C.3     1  UNL1        0.0473
     31 C         142.6711  144.8519  164.1469 C.3     1  UNL1        0.0039
     32 C         141.2764  144.8860  163.5958 C.3     1  UNL1        0.0029
     33 C         140.1509  144.2592  164.3641 C.3     1  UNL1        0.0171
     34 C         138.7561  144.2933  163.8131 C.3     1  UNL1        0.0686
     35 N         138.4870  144.9542  162.4937 N.3     1  UNL1       -0.2975
     36 C         139.6126  145.5810  161.7254 C.3     1  UNL1        0.0686
     37 C         141.0073  145.5469  162.2764 C.3     1  UNL1        0.0171
     38 H         137.8030  145.6906  162.6674 H       1  UNL1        0.1232
@<TRIPOS>BOND
     1     1     2    2
     2     2    21    1
     3    21    22    1
     4    22    23   ar
     5    23    24   ar
     6    24    25   ar
     7    25    26   ar
     8    26    28    1
     9    28    29    1
    10    29    30    1
    11    30    31    1
    12    31    32    1
    13    32    33    1
    14    33    34    1
    15    34    35    1
    16    35    36    1
    17    36    37    1
    18    26    27   ar
    19     2     3   am
    20     3     5    1
    21     5     6   ar
    22     6     7   ar
    23     7    10    1
    24    10    11   ar
    25    11    12   ar
    26    12    13   ar
    27    13    14   ar
    28    14    15   ar
    29    15    16   ar
    30    16    17    1
    31    16    18   ar
    32    18    19   ar
    33     7     8   ar
    34     8     9   ar
    35    27    22   ar
    36     9     5   ar
    37    37    32    1
    38    19    10   ar
    39    19    13    1
    40    35    38    1
    41     3     4    1
    42    14    20    1
@<TRIPOS>MOLECULE
*****
 38 42 0 0 0
SMALL
GASTEIGER

@<TRIPOS>ATOM
      1 O         144.4014  144.6591  162.5032 O.2     1  UNL1       -0.2744
      2 C         143.6364  143.8600  163.5162 C.2     1  UNL1        0.2320
      3 N         142.1459  143.7357  163.4031 N.am    1  UNL1       -0.2639
      4 H         141.6438  143.2112  164.0679 H       1  UNL1        0.1567
      5 C         141.4203  144.4105  162.2770 C.ar    1  UNL1        0.1655
      6 N         141.4773  144.0177  160.8305 N.ar    1  UNL1       -0.2239
      7 C         140.6026  144.9610  160.0592 C.ar    1  UNL1        0.0913
      8 C         140.0049  145.9368  161.0290 C.ar    1  UNL1        0.0573
      9 S         140.5103  145.5966  162.3997 S.2     1  UNL1       -0.0508
     10 C         140.3668  144.9334  158.5780 C.ar    1  UNL1        0.0404
     11 C         140.9377  145.8930  157.5764 C.ar    1  UNL1        0.1021
     12 N         140.4425  145.4940  156.2179 N.ar    1  UNL1       -0.2269
     13 C         139.5656  144.2879  156.3799 C.ar    1  UNL1        0.1407
     14 N         138.8036  143.4603  155.3877 N.ar    1  UNL1       -0.3356
     15 C         137.9949  142.2863  155.8542 C.ar    1  UNL1        0.1035
     16 C         137.9481  141.9399  157.3129 C.ar    1  UNL1        0.1572
     17 F         137.1393  140.7658  157.7793 F       1  UNL1       -0.2026
     18 C         138.7101  142.7674  158.3051 C.ar    1  UNL1        0.0343
     19 C         139.5188  143.9414  157.8386 C.ar    1  UNL1        0.0392
     20 H         138.8343  143.6877  154.4303 H       1  UNL1        0.1675
     21 C         144.3620  143.1851  164.6423 C.3     1  UNL1        0.1118
     22 C         144.0088  141.7788  165.0261 C.ar    1  UNL1       -0.0101
     23 C         144.6991  140.6243  164.3622 C.ar    1  UNL1       -0.0036
     24 C         144.3458  139.2178  164.7460 C.ar    1  UNL1        0.0028
     25 C         143.3024  138.9659  165.7937 C.ar    1  UNL1        0.0369
     26 C         142.6121  140.1204  166.4577 C.ar    1  UNL1        0.1382
     27 C         142.9653  141.5268  166.0739 C.ar    1  UNL1        0.0331
     28 O         141.5687  139.8685  167.5054 O.3     1  UNL1       -0.4755
     29 C         140.1138  139.9373  167.1468 C.3     1  UNL1        0.2054
     30 C         139.6845  139.7714  165.7191 C.3     1  UNL1        0.0473
     31 C         138.2900  140.1399  165.3076 C.3     1  UNL1        0.0039
     32 C         138.0710  141.1073  164.1824 C.3     1  UNL1        0.0029
     33 C         138.0642  140.6190  162.7641 C.3     1  UNL1        0.0171
     34 C         137.8452  141.5863  161.6388 C.3     1  UNL1        0.0686
     35 N         137.6331  143.0421  161.9318 N.3     1  UNL1       -0.2975
     36 C         137.6400  143.5304  163.3501 C.3     1  UNL1        0.0686
     37 C         137.8589  142.5630  164.4754 C.3     1  UNL1        0.0171
     38 H         136.7259  143.2924  161.5385 H       1  UNL1        0.1232
@<TRIPOS>BOND
     1     1     2    2
     2     2    21    1
     3    21    22    1
     4    22    23   ar
     5    23    24   ar
     6    24    25   ar
     7    25    26   ar
     8    26    28    1
     9    28    29    1
    10    29    30    1
    11    30    31    1
    12    31    32    1
    13    32    33    1
    14    33    34    1
    15    34    35    1
    16    35    36    1
    17    36    37    1
    18    26    27   ar
    19     2     3   am
    20     3     5    1
    21     5     6   ar
    22     6     7   ar
    23     7    10    1
    24    10    11   ar
    25    11    12   ar
    26    12    13   ar
    27    13    14   ar
    28    14    15   ar
    29    15    16   ar
    30    16    17    1
    31    16    18   ar
    32    18    19   ar
    33     7     8   ar
    34     8     9   ar
    35    27    22   ar
    36     9     5   ar
    37    37    32    1
    38    19    10   ar
    39    19    13    1
    40    35    38    1
    41     3     4    1
    42    14    20    1
@<TRIPOS>MOLECULE
*****
 38 42 0 0 0
SMALL
GASTEIGER

@<TRIPOS>ATOM
      1 O         139.7423  138.2592  158.6498 O.2     1  UNL1       -0.2744
      2 C         140.7967  139.3260  158.6522 C.2     1  UNL1        0.2320
      3 N         142.0940  139.0999  157.9340 N.am    1  UNL1       -0.2639
      4 H         142.7861  139.8001  157.9356 H       1  UNL1        0.1567
      5 C         142.3369  137.8070  157.2135 C.ar    1  UNL1        0.1655
      6 N         142.7150  136.5014  157.8480 N.ar    1  UNL1       -0.2239
      7 C         142.8562  135.4801  156.7586 C.ar    1  UNL1        0.0913
      8 C         142.5653  136.1544  155.4506 C.ar    1  UNL1        0.0573
      9 S         142.2444  137.5924  155.7317 S.2     1  UNL1       -0.0508
     10 C         143.2236  134.0377  156.9444 C.ar    1  UNL1        0.0404
     11 C         144.3174  133.5132  157.8268 C.ar    1  UNL1        0.1021
     12 N         144.3315  132.0179  157.7081 N.ar    1  UNL1       -0.2269
     13 C         143.2466  131.6184  156.7525 C.ar    1  UNL1        0.1407
     14 N         142.7937  130.2792  156.2512 N.ar    1  UNL1       -0.3356
     15 C         141.6560  130.1884  155.2778 C.ar    1  UNL1        0.1035
     16 C         140.9713  131.4367  154.8058 C.ar    1  UNL1        0.1572
     17 F         139.8336  131.3458  153.8324 F       1  UNL1       -0.2026
     18 C         141.4242  132.7759  155.3071 C.ar    1  UNL1        0.0343
     19 C         142.5618  132.8668  156.2805 C.ar    1  UNL1        0.0392
     20 H         143.2431  129.4599  156.5610 H       1  UNL1        0.1675
     21 C         140.5538  140.6190  159.3727 C.3     1  UNL1        0.1118
     22 C         140.9813  140.7727  160.8023 C.ar    1  UNL1       -0.0101
     23 C         140.7209  142.0591  161.5287 C.ar    1  UNL1       -0.0036
     24 C         141.1484  142.2128  162.9584 C.ar    1  UNL1        0.0028
     25 C         141.8363  141.0803  163.6614 C.ar    1  UNL1        0.0369
     26 C         142.0967  139.7941  162.9349 C.ar    1  UNL1        0.1382
     27 C         141.6692  139.6403  161.5054 C.ar    1  UNL1        0.0331
     28 O         142.7846  138.6616  163.6380 O.3     1  UNL1       -0.4755
     29 C         142.0362  137.8380  164.6438 C.3     1  UNL1        0.2054
     30 C         140.7081  137.2401  164.2847 C.3     1  UNL1        0.0473
     31 C         139.4402  137.9257  164.6997 C.3     1  UNL1        0.0039
     32 C         138.6930  138.7788  163.7179 C.3     1  UNL1        0.0029
     33 C         138.2576  140.1612  164.1045 C.3     1  UNL1        0.0171
     34 C         137.5104  141.0144  163.1227 C.3     1  UNL1        0.0686
     35 N         137.1986  140.4851  161.7543 N.3     1  UNL1       -0.2975
     36 C         137.6340  139.1027  161.3676 C.3     1  UNL1        0.0686
     37 C         138.3812  138.2496  162.3494 C.3     1  UNL1        0.0171
     38 H         137.6264  141.1263  161.0861 H       1  UNL1        0.1232
@<TRIPOS>BOND
     1     1     2    2
     2     2    21    1
     3    21    22    1
     4    22    23   ar
     5    23    24   ar
     6    24    25   ar
     7    25    26   ar
     8    26    28    1
     9    28    29    1
    10    29    30    1
    11    30    31    1
    12    31    32    1
    13    32    33    1
    14    33    34    1
    15    34    35    1
    16    35    36    1
    17    36    37    1
    18    26    27   ar
    19     2     3   am
    20     3     5    1
    21     5     6   ar
    22     6     7   ar
    23     7    10    1
    24    10    11   ar
    25    11    12   ar
    26    12    13   ar
    27    13    14   ar
    28    14    15   ar
    29    15    16   ar
    30    16    17    1
    31    16    18   ar
    32    18    19   ar
    33     7     8   ar
    34     8     9   ar
    35    27    22   ar
    36     9     5   ar
    37    37    32    1
    38    19    10   ar
    39    19    13    1
    40    35    38    1
    41     3     4    1
    42    14    20    1
