@<TRIPOS>MOLECULE
*****
 47 52 0 0 0
SMALL
GASTEIGER

@<TRIPOS>ATOM
      1 C         140.7443  137.2928  164.4127 C.3     1  UNL1        0.0320
      2 C         141.9552  138.1063  164.0636 C.3     1  UNL1        0.0932
      3 C         142.8042  138.6927  165.1524 C.3     1  UNL1        0.0286
      4 C         144.0151  139.5061  164.8033 C.3     1  UNL1        0.0193
      5 C         144.3771  139.7333  163.3654 C.3     1  UNL1        0.0700
      6 C         143.5280  139.1469  162.2766 C.3     1  UNL1        0.0193
      7 C         142.3171  138.3334  162.6258 C.3     1  UNL1        0.0286
      8 C         143.7041  139.2806  163.5076 C.3     1  UNL1        0.1562
      9 O         142.6092  138.5450  163.8232 O.3     1  UNL1       -0.3572
     10 N         145.5880  140.5468  163.0163 N.3     1  UNL1       -0.2926
     11 H         145.6693  140.5323  161.9996 H       1  UNL1        0.1236
     12 C         145.6728  141.9840  163.4371 C.3     1  UNL1        0.1152
     13 C         144.4855  142.8855  163.2711 C.ar    1  UNL1        0.0765
     14 C         143.8743  143.5491  164.4695 C.ar    1  UNL1        0.0193
     15 C         142.6869  144.4506  164.3035 C.ar    1  UNL1        0.0411
     16 C         142.1107  144.6884  162.9392 C.ar    1  UNL1        0.1708
     17 C         142.7218  144.0248  161.7408 C.ar    1  UNL1        0.1682
     18 N         143.9092  143.1233  161.9068 N.ar    1  UNL1       -0.2304
     19 N         142.1456  144.2626  160.3765 N.am    1  UNL1       -0.2639
     20 C         140.9583  145.1640  160.2105 C.2     1  UNL1        0.2718
     21 O         140.3821  145.4018  158.8462 O.2     1  UNL1       -0.2707
     22 C         140.3471  145.8277  161.4089 C.3     1  UNL1        0.2898
     23 O         140.9233  145.5899  162.7732 O.3     1  UNL1       -0.4628
     24 H         142.5467  143.8270  159.5900 H       1  UNL1        0.1565
     25 C         139.4662  137.9774  164.7973 C.3     1  UNL1        0.0327
     26 C         139.9786  142.2537  166.1017 C.ar    1  UNL1        0.2249
     27 C         139.4389  143.3664  165.2529 C.ar    1  UNL1        0.0593
     28 C         138.7285  143.0538  163.9693 C.ar    1  UNL1        0.0254
     29 C         138.5577  141.6284  163.5345 C.ar    1  UNL1        0.0990
     30 N         137.8473  141.3158  162.2509 N.ar    1  UNL1       -0.2400
     31 C         137.6765  139.8905  161.8161 C.ar    1  UNL1        0.1281
     32 C         138.2161  138.7776  162.6650 C.ar    1  UNL1        0.1566
     33 F         138.0453  137.3522  162.2302 F       1  UNL1       -0.2028
     34 C         138.9265  139.0902  163.9485 C.ar    1  UNL1        0.0261
     35 C         139.0973  140.5157  164.3833 C.ar    1  UNL1        0.1002
     36 N         139.8078  140.8283  165.6669 N.ar    1  UNL1       -0.2104
     37 O         140.6890  142.5663  167.3853 O.3     1  UNL1       -0.4600
     38 C         142.0994  142.1006  167.5945 C.3     1  UNL1        0.2133
     39 C         142.3944  141.0323  168.6052 C.3     1  UNL1        0.1232
     40 C         141.5495  140.9131  169.8389 C.3     1  UNL1        0.3336
     41 F         141.0952  139.5538  169.3965 F       1  UNL1       -0.1945
     42 F         142.0037  142.2725  170.2814 F       1  UNL1       -0.1945
     43 N         139.9359  139.5331  171.3363 N.am    1  UNL1       -0.3244
     44 C         140.7046  140.7940  171.0726 C.2     1  UNL1        0.2808
     45 O         140.6283  141.9356  172.0425 O.2     1  UNL1       -0.2695
     46 H         139.3813  139.4549  172.1460 H       1  UNL1        0.1451
     47 H         139.9860  138.7838  170.6996 H       1  UNL1        0.1451
@<TRIPOS>BOND
     1    43    44   am
     2    44    45    2
     3    44    40    1
     4    40    41    1
     5    40    42    1
     6    40    39    1
     7    39    38    1
     8    38    37    1
     9    37    26    1
    10    26    27   ar
    11    27    28   ar
    12    28    29   ar
    13    29    30   ar
    14    30    31   ar
    15    31    32   ar
    16    32    33    1
    17    32    34   ar
    18    34    25    1
    19    25     1    1
    20     1     2    1
    21     2     3    1
    22     3     4    1
    23     4     5    1
    24     5    10    1
    25    10    12    1
    26    12    13    1
    27    13    14   ar
    28    14    15   ar
    29    15    16   ar
    30    16    17   ar
    31    17    18   ar
    32    17    19    1
    33    19    20   am
    34    20    21    2
    35    20    22    1
    36    22    23    1
    37     5     6    1
    38     6     7    1
    39     5     8    1
    40     8     9    1
    41    34    35   ar
    42    35    36   ar
    43    36    26   ar
    44    35    29   ar
    45     7     2    1
    46     9     2    1
    47    18    13   ar
    48    23    16    1
    49    43    46    1
    50    43    47    1
    51    10    11    1
    52    19    24    1
@<TRIPOS>MOLECULE
*****
 47 52 0 0 0
SMALL
GASTEIGER

@<TRIPOS>ATOM
      1 C         145.7166  141.0125  163.8271 C.3     1  UNL1        0.0320
      2 C         144.6053  140.0684  163.4753 C.3     1  UNL1        0.0932
      3 C         144.1517  139.9415  162.0512 C.3     1  UNL1        0.0286
      4 C         143.0404  138.9975  161.6993 C.3     1  UNL1        0.0193
      5 C         142.3827  138.1803  162.7716 C.3     1  UNL1        0.0700
      6 C         142.8363  138.3073  164.1957 C.3     1  UNL1        0.0193
      7 C         143.9477  139.2514  164.5476 C.3     1  UNL1        0.0286
      8 C         142.9876  138.6841  163.0129 C.3     1  UNL1        0.1562
      9 O         143.9924  139.5378  163.3310 O.3     1  UNL1       -0.3572
     10 N         141.2714  137.2363  162.4198 N.3     1  UNL1       -0.2926
     11 H         141.0937  136.6688  163.2485 H       1  UNL1        0.1236
     12 C         139.9450  137.7735  161.9703 C.3     1  UNL1        0.1152
     13 C         139.3548  138.9757  162.6458 C.ar    1  UNL1        0.0765
     14 C         138.6741  138.8307  163.9746 C.ar    1  UNL1        0.0193
     15 C         138.0839  140.0329  164.6501 C.ar    1  UNL1        0.0411
     16 C         138.1745  141.3802  163.9968 C.ar    1  UNL1        0.1708
     17 C         138.8552  141.5252  162.6681 C.ar    1  UNL1        0.1682
     18 N         139.4454  140.3230  161.9926 N.ar    1  UNL1       -0.2304
     19 N         138.9457  142.8725  162.0149 N.am    1  UNL1       -0.2639
     20 C         138.3556  144.0747  162.6904 C.2     1  UNL1        0.2718
     21 O         138.4461  145.4219  162.0372 O.2     1  UNL1       -0.2707
     22 C         137.6748  143.9297  164.0192 C.3     1  UNL1        0.2898
     23 O         137.5842  142.5824  164.6724 O.3     1  UNL1       -0.4628
     24 H         139.3925  142.9676  161.1428 H       1  UNL1        0.1565
     25 C         145.4012  142.3579  164.4108 C.3     1  UNL1        0.0327
     26 C         142.2023  141.8322  167.5318 C.ar    1  UNL1        0.2249
     27 C         140.8466  142.4399  167.3259 C.ar    1  UNL1        0.0593
     28 C         140.5571  143.2230  166.0797 C.ar    1  UNL1        0.0254
     29 C         141.6233  143.3982  165.0394 C.ar    1  UNL1        0.0990
     30 N         141.3338  144.1812  163.7931 N.ar    1  UNL1       -0.2400
     31 C         142.4001  144.3565  162.7528 C.ar    1  UNL1        0.1281
     32 C         143.7560  143.7487  162.9587 C.ar    1  UNL1        0.1566
     33 F         144.8222  143.9239  161.9184 F       1  UNL1       -0.2028
     34 C         144.0455  142.9656  164.2049 C.ar    1  UNL1        0.0261
     35 C         142.9791  142.7904  165.2453 C.ar    1  UNL1        0.1002
     36 N         143.2686  142.0074  166.4915 N.ar    1  UNL1       -0.2104
     37 O         142.4918  141.0491  168.7780 O.3     1  UNL1       -0.4600
     38 C         142.3695  141.7052  170.1214 C.3     1  UNL1        0.2133
     39 C         141.1179  141.5316  170.9296 C.3     1  UNL1        0.1232
     40 C         139.9571  140.7708  170.3605 C.3     1  UNL1        0.3336
     41 F         140.6873  139.4817  170.5947 F       1  UNL1       -0.1945
     42 F         139.2269  142.0600  170.1264 F       1  UNL1       -0.1945
     43 N         137.6293  139.6579  170.6657 N.am    1  UNL1       -0.3244
     44 C         138.7963  140.0100  169.7915 C.2     1  UNL1        0.2808
     45 O         138.8026  139.6013  168.3483 O.2     1  UNL1       -0.2695
     46 H         136.8675  139.1586  170.2922 H       1  UNL1        0.1451
     47 H         137.6252  139.9262  171.6129 H       1  UNL1        0.1451
@<TRIPOS>BOND
     1    43    44   am
     2    44    45    2
     3    44    40    1
     4    40    41    1
     5    40    42    1
     6    40    39    1
     7    39    38    1
     8    38    37    1
     9    37    26    1
    10    26    27   ar
    11    27    28   ar
    12    28    29   ar
    13    29    30   ar
    14    30    31   ar
    15    31    32   ar
    16    32    33    1
    17    32    34   ar
    18    34    25    1
    19    25     1    1
    20     1     2    1
    21     2     3    1
    22     3     4    1
    23     4     5    1
    24     5    10    1
    25    10    12    1
    26    12    13    1
    27    13    14   ar
    28    14    15   ar
    29    15    16   ar
    30    16    17   ar
    31    17    18   ar
    32    17    19    1
    33    19    20   am
    34    20    21    2
    35    20    22    1
    36    22    23    1
    37     5     6    1
    38     6     7    1
    39     5     8    1
    40     8     9    1
    41    34    35   ar
    42    35    36   ar
    43    36    26   ar
    44    35    29   ar
    45     7     2    1
    46     9     2    1
    47    18    13   ar
    48    23    16    1
    49    43    46    1
    50    43    47    1
    51    10    11    1
    52    19    24    1
@<TRIPOS>MOLECULE
*****
 47 52 0 0 0
SMALL
GASTEIGER

@<TRIPOS>ATOM
      1 C         140.9173  137.3456  164.6130 C.3     1  UNL1        0.0320
      2 C         142.0967  138.1844  164.2189 C.3     1  UNL1        0.0932
      3 C         142.8904  138.9031  165.2694 C.3     1  UNL1        0.0286
      4 C         144.0699  139.7418  164.8753 C.3     1  UNL1        0.0193
      5 C         144.4557  139.8619  163.4307 C.3     1  UNL1        0.0700
      6 C         143.6620  139.1431  162.3802 C.3     1  UNL1        0.0193
      7 C         142.4825  138.3044  162.7744 C.3     1  UNL1        0.0286
      8 C         143.8015  139.3907  163.5982 C.3     1  UNL1        0.1562
      9 O         142.7350  138.6323  163.9545 O.3     1  UNL1       -0.3572
     10 N         145.6351  140.7006  163.0366 N.3     1  UNL1       -0.2926
     11 H         145.9848  140.3219  162.1564 H       1  UNL1        0.1236
     12 C         145.4716  142.1783  162.8376 C.3     1  UNL1        0.1152
     13 C         144.4462  142.6964  161.8732 C.ar    1  UNL1        0.0765
     14 C         144.4798  142.2622  160.4378 C.ar    1  UNL1        0.0193
     15 C         143.4544  142.7802  159.4734 C.ar    1  UNL1        0.0411
     16 C         142.3954  143.7324  159.9443 C.ar    1  UNL1        0.1708
     17 C         142.3618  144.1666  161.3797 C.ar    1  UNL1        0.1682
     18 N         143.3872  143.6486  162.3442 N.ar    1  UNL1       -0.2304
     19 N         141.3028  145.1188  161.8506 N.am    1  UNL1       -0.2639
     20 C         140.2774  145.6369  160.8862 C.2     1  UNL1        0.2718
     21 O         139.2184  146.5891  161.3572 O.2     1  UNL1       -0.2707
     22 C         140.3109  145.2027  159.4508 C.3     1  UNL1        0.2898
     23 O         141.3699  144.2504  158.9798 O.3     1  UNL1       -0.4628
     24 H         141.2807  145.4038  162.7927 H       1  UNL1        0.1565
     25 C         139.6089  138.0000  164.9449 C.3     1  UNL1        0.0327
     26 C         140.2194  142.3181  166.0547 C.ar    1  UNL1        0.2249
     27 C         139.6783  143.4031  165.1716 C.ar    1  UNL1        0.0593
     28 C         138.9337  143.0488  163.9186 C.ar    1  UNL1        0.0254
     29 C         138.7301  141.6095  163.5487 C.ar    1  UNL1        0.0990
     30 N         137.9855  141.2552  162.2957 N.ar    1  UNL1       -0.2400
     31 C         137.7820  139.8159  161.9257 C.ar    1  UNL1        0.1281
     32 C         138.3231  138.7308  162.8088 C.ar    1  UNL1        0.1566
     33 F         138.1196  137.2915  162.4388 F       1  UNL1       -0.2028
     34 C         139.0678  139.0851  164.0618 C.ar    1  UNL1        0.0261
     35 C         139.2713  140.5245  164.4317 C.ar    1  UNL1        0.1002
     36 N         140.0159  140.8788  165.6847 N.ar    1  UNL1       -0.2104
     37 O         140.9640  142.6724  167.3077 O.3     1  UNL1       -0.4600
     38 C         142.2571  141.9846  167.6316 C.3     1  UNL1        0.2133
     39 C         142.2576  140.7530  168.4879 C.3     1  UNL1        0.1232
     40 C         141.4638  140.7240  169.7603 C.3     1  UNL1        0.3336
     41 F         142.6862  141.1241  170.5320 F       1  UNL1       -0.1945
     42 F         140.2413  140.3239  168.9887 F       1  UNL1       -0.1945
     43 N         139.9189  139.4557  171.4202 N.am    1  UNL1       -0.3244
     44 C         140.6700  140.6950  171.0328 C.2     1  UNL1        0.2808
     45 O         140.6274  141.9053  171.9179 O.2     1  UNL1       -0.2695
     46 H         139.3980  139.4366  172.2553 H       1  UNL1        0.1451
     47 H         139.9469  138.6613  170.8392 H       1  UNL1        0.1451
@<TRIPOS>BOND
     1    43    44   am
     2    44    45    2
     3    44    40    1
     4    40    41    1
     5    40    42    1
     6    40    39    1
     7    39    38    1
     8    38    37    1
     9    37    26    1
    10    26    27   ar
    11    27    28   ar
    12    28    29   ar
    13    29    30   ar
    14    30    31   ar
    15    31    32   ar
    16    32    33    1
    17    32    34   ar
    18    34    25    1
    19    25     1    1
    20     1     2    1
    21     2     3    1
    22     3     4    1
    23     4     5    1
    24     5    10    1
    25    10    12    1
    26    12    13    1
    27    13    14   ar
    28    14    15   ar
    29    15    16   ar
    30    16    17   ar
    31    17    18   ar
    32    17    19    1
    33    19    20   am
    34    20    21    2
    35    20    22    1
    36    22    23    1
    37     5     6    1
    38     6     7    1
    39     5     8    1
    40     8     9    1
    41    34    35   ar
    42    35    36   ar
    43    36    26   ar
    44    35    29   ar
    45     7     2    1
    46     9     2    1
    47    18    13   ar
    48    23    16    1
    49    43    46    1
    50    43    47    1
    51    10    11    1
    52    19    24    1
@<TRIPOS>MOLECULE
*****
 47 52 0 0 0
SMALL
GASTEIGER

@<TRIPOS>ATOM
      1 C         138.0176  144.0635  164.4542 C.3     1  UNL1        0.0320
      2 C         137.9665  142.7001  163.8309 C.3     1  UNL1        0.0932
      3 C         138.1211  141.4779  164.6866 C.3     1  UNL1        0.0286
      4 C         138.0700  140.1145  164.0633 C.3     1  UNL1        0.0193
      5 C         137.8642  139.9733  162.5842 C.3     1  UNL1        0.0700
      6 C         137.7096  141.1955  161.7284 C.3     1  UNL1        0.0193
      7 C         137.7607  142.5589  162.3518 C.3     1  UNL1        0.0286
      8 C         137.8852  140.7413  162.8804 C.3     1  UNL1        0.1562
      9 O         137.9315  141.9741  163.4440 O.3     1  UNL1       -0.3572
     10 N         137.8131  138.6099  161.9609 N.3     1  UNL1       -0.2926
     11 H         137.1018  138.6465  161.2307 H       1  UNL1        0.1236
     12 C         139.0447  138.0239  161.3367 C.3     1  UNL1        0.1152
     13 C         140.3961  138.3364  161.9077 C.ar    1  UNL1        0.0765
     14 C         141.4499  138.9610  161.0420 C.ar    1  UNL1        0.0193
     15 C         142.8013  139.2735  161.6130 C.ar    1  UNL1        0.0411
     16 C         143.0990  138.9613  163.0496 C.ar    1  UNL1        0.1708
     17 C         142.0453  138.3367  163.9153 C.ar    1  UNL1        0.1682
     18 N         140.6938  138.0242  163.3443 N.ar    1  UNL1       -0.2304
     19 N         142.3430  138.0245  165.3519 N.am    1  UNL1       -0.2639
     20 C         143.6944  138.3369  165.9229 C.2     1  UNL1        0.2718
     21 O         143.9920  138.0247  167.3595 O.2     1  UNL1       -0.2707
     22 C         144.7482  138.9616  165.0572 C.3     1  UNL1        0.2898
     23 O         144.4505  139.2738  163.6206 O.3     1  UNL1       -0.4628
     24 H         141.6514  137.6145  165.9201 H       1  UNL1        0.1565
     25 C         139.3313  144.7730  164.5994 C.3     1  UNL1        0.0327
     26 C         143.2400  142.6300  165.2156 C.ar    1  UNL1        0.2249
     27 C         144.2484  142.5756  164.1065 C.ar    1  UNL1        0.0593
     28 C         143.9540  143.2355  162.7921 C.ar    1  UNL1        0.0254
     29 C         142.6511  143.9498  162.5867 C.ar    1  UNL1        0.0990
     30 N         142.3566  144.6097  161.2722 N.ar    1  UNL1       -0.2400
     31 C         141.0538  145.3241  161.0668 C.ar    1  UNL1        0.1281
     32 C         140.0453  145.3785  162.1759 C.ar    1  UNL1        0.1566
     33 F         138.7424  146.0928  161.9705 F       1  UNL1       -0.2028
     34 C         140.3397  144.7186  163.4904 C.ar    1  UNL1        0.0261
     35 C         141.6427  144.0042  163.6957 C.ar    1  UNL1        0.1002
     36 N         141.9371  143.3443  165.0102 N.ar    1  UNL1       -0.2104
     37 O         143.5344  141.9701  166.5300 O.3     1  UNL1       -0.4600
     38 C         142.4139  141.6390  167.4707 C.3     1  UNL1        0.2133
     39 C         142.2567  142.4067  168.7496 C.3     1  UNL1        0.1232
     40 C         140.9777  142.3135  169.5280 C.3     1  UNL1        0.3336
     41 F         141.7255  142.6148  170.7928 F       1  UNL1       -0.1945
     42 F         140.2299  142.0122  168.2631 F       1  UNL1       -0.1945
     43 N         139.2717  143.3576  171.1861 N.am    1  UNL1       -0.3244
     44 C         139.6989  142.2203  170.3063 C.2     1  UNL1        0.2808
     45 O         138.8471  140.9897  170.2048 O.2     1  UNL1       -0.2695
     46 H         138.4323  143.2964  171.6969 H       1  UNL1        0.1451
     47 H         139.8307  144.1653  171.2527 H       1  UNL1        0.1451
@<TRIPOS>BOND
     1    43    44   am
     2    44    45    2
     3    44    40    1
     4    40    41    1
     5    40    42    1
     6    40    39    1
     7    39    38    1
     8    38    37    1
     9    37    26    1
    10    26    27   ar
    11    27    28   ar
    12    28    29   ar
    13    29    30   ar
    14    30    31   ar
    15    31    32   ar
    16    32    33    1
    17    32    34   ar
    18    34    25    1
    19    25     1    1
    20     1     2    1
    21     2     3    1
    22     3     4    1
    23     4     5    1
    24     5    10    1
    25    10    12    1
    26    12    13    1
    27    13    14   ar
    28    14    15   ar
    29    15    16   ar
    30    16    17   ar
    31    17    18   ar
    32    17    19    1
    33    19    20   am
    34    20    21    2
    35    20    22    1
    36    22    23    1
    37     5     6    1
    38     6     7    1
    39     5     8    1
    40     8     9    1
    41    34    35   ar
    42    35    36   ar
    43    36    26   ar
    44    35    29   ar
    45     7     2    1
    46     9     2    1
    47    18    13   ar
    48    23    16    1
    49    43    46    1
    50    43    47    1
    51    10    11    1
    52    19    24    1
@<TRIPOS>MOLECULE
*****
 47 52 0 0 0
SMALL
GASTEIGER

@<TRIPOS>ATOM
      1 C         137.6155  142.3733  162.7727 C.3     1  UNL1        0.0320
      2 C         138.9067  143.1276  162.8898 C.3     1  UNL1        0.0932
      3 C         139.5637  143.2865  164.2288 C.3     1  UNL1        0.0286
      4 C         140.8549  144.0408  164.3459 C.3     1  UNL1        0.0193
      5 C         141.4892  144.6363  163.1239 C.3     1  UNL1        0.0700
      6 C         140.8321  144.4774  161.7848 C.3     1  UNL1        0.0193
      7 C         139.5409  143.7230  161.6678 C.3     1  UNL1        0.0286
      8 C         140.7813  144.2315  163.0100 C.3     1  UNL1        0.1562
      9 O         139.6137  143.5494  162.9041 O.3     1  UNL1       -0.3572
     10 N         142.7804  145.3906  163.2409 N.3     1  UNL1       -0.2926
     11 H         142.8478  145.7107  164.2070 H       1  UNL1        0.1236
     12 C         144.0780  144.7108  162.9184 C.3     1  UNL1        0.1152
     13 C         144.1385  143.2149  162.8264 C.ar    1  UNL1        0.0765
     14 C         144.5248  142.4045  164.0281 C.ar    1  UNL1        0.0193
     15 C         144.5852  140.9086  163.9361 C.ar    1  UNL1        0.0411
     16 C         144.2593  140.2230  162.6423 C.ar    1  UNL1        0.1708
     17 C         143.8730  141.0333  161.4406 C.ar    1  UNL1        0.1682
     18 N         143.8126  142.5293  161.5326 N.ar    1  UNL1       -0.2304
     19 N         143.5472  140.3477  160.1469 N.am    1  UNL1       -0.2639
     20 C         143.6076  138.8517  160.0549 C.2     1  UNL1        0.2718
     21 O         143.2817  138.1661  158.7611 O.2     1  UNL1       -0.2707
     22 C         143.9939  138.0413  161.2566 C.3     1  UNL1        0.2898
     23 O         144.3197  138.7269  162.5504 O.3     1  UNL1       -0.4628
     24 H         143.2936  140.8795  159.3582 H       1  UNL1        0.1565
     25 C         137.5112  140.9769  163.3106 C.3     1  UNL1        0.0327
     26 C         140.8410  139.2134  165.7706 C.ar    1  UNL1        0.2249
     27 C         141.6992  138.1236  165.1997 C.ar    1  UNL1        0.0593
     28 C         141.4474  137.6218  163.8087 C.ar    1  UNL1        0.0254
     29 C         140.3375  138.2096  162.9887 C.ar    1  UNL1        0.0990
     30 N         140.0857  137.7077  161.5978 N.ar    1  UNL1       -0.2400
     31 C         138.9758  138.2956  160.7778 C.ar    1  UNL1        0.1281
     32 C         138.1176  139.3853  161.3487 C.ar    1  UNL1        0.1566
     33 F         137.0076  139.9732  160.5287 F       1  UNL1       -0.2028
     34 C         138.3693  139.8872  162.7397 C.ar    1  UNL1        0.0261
     35 C         139.4793  139.2993  163.5597 C.ar    1  UNL1        0.1002
     36 N         139.7311  139.8012  164.9506 N.ar    1  UNL1       -0.2104
     37 O         141.0928  139.7153  167.1616 O.3     1  UNL1       -0.4600
     38 C         139.9382  140.0511  168.0582 C.3     1  UNL1        0.2133
     39 C         140.1719  140.3094  169.5172 C.3     1  UNL1        0.1232
     40 C         140.0515  141.7022  170.0609 C.3     1  UNL1        0.3336
     41 F         141.5055  141.9384  169.7777 F       1  UNL1       -0.1945
     42 F         138.5976  141.4660  170.3442 F       1  UNL1       -0.1945
     43 N         138.8103  143.4409  171.5396 N.am    1  UNL1       -0.3244
     44 C         139.9312  143.0950  170.6047 C.2     1  UNL1        0.2808
     45 O         140.9317  144.1419  170.2136 O.2     1  UNL1       -0.2695
     46 H         138.7313  144.3551  171.8964 H       1  UNL1        0.1451
     47 H         138.1536  142.7538  171.7963 H       1  UNL1        0.1451
@<TRIPOS>BOND
     1    43    44   am
     2    44    45    2
     3    44    40    1
     4    40    41    1
     5    40    42    1
     6    40    39    1
     7    39    38    1
     8    38    37    1
     9    37    26    1
    10    26    27   ar
    11    27    28   ar
    12    28    29   ar
    13    29    30   ar
    14    30    31   ar
    15    31    32   ar
    16    32    33    1
    17    32    34   ar
    18    34    25    1
    19    25     1    1
    20     1     2    1
    21     2     3    1
    22     3     4    1
    23     4     5    1
    24     5    10    1
    25    10    12    1
    26    12    13    1
    27    13    14   ar
    28    14    15   ar
    29    15    16   ar
    30    16    17   ar
    31    17    18   ar
    32    17    19    1
    33    19    20   am
    34    20    21    2
    35    20    22    1
    36    22    23    1
    37     5     6    1
    38     6     7    1
    39     5     8    1
    40     8     9    1
    41    34    35   ar
    42    35    36   ar
    43    36    26   ar
    44    35    29   ar
    45     7     2    1
    46     9     2    1
    47    18    13   ar
    48    23    16    1
    49    43    46    1
    50    43    47    1
    51    10    11    1
    52    19    24    1
@<TRIPOS>MOLECULE
*****
 47 52 0 0 0
SMALL
GASTEIGER

@<TRIPOS>ATOM
      1 C         138.5377  137.9072  163.2159 C.3     1  UNL1        0.0320
      2 C         138.3038  139.3865  163.2983 C.3     1  UNL1        0.0932
      3 C         138.3815  140.0855  164.6232 C.3     1  UNL1        0.0286
      4 C         138.1476  141.5648  164.7056 C.3     1  UNL1        0.0193
      5 C         137.8360  142.3453  163.4630 C.3     1  UNL1        0.0700
      6 C         137.7584  141.6463  162.1381 C.3     1  UNL1        0.0193
      7 C         137.9923  140.1669  162.0558 C.3     1  UNL1        0.0286
      8 C         137.9566  141.5363  163.3681 C.3     1  UNL1        0.1562
      9 O         138.1681  140.1987  163.2935 O.3     1  UNL1       -0.3572
     10 N         137.6021  143.8246  163.5454 N.3     1  UNL1       -0.2926
     11 H         137.1922  144.0073  164.4614 H       1  UNL1        0.1236
     12 C         138.7514  144.7756  163.3878 C.3     1  UNL1        0.1152
     13 C         140.1523  144.2490  163.2884 C.ar    1  UNL1        0.0765
     14 C         140.9379  143.9672  164.5348 C.ar    1  UNL1        0.0193
     15 C         142.3389  143.4407  164.4355 C.ar    1  UNL1        0.0411
     16 C         142.9544  143.1958  163.0897 C.ar    1  UNL1        0.1708
     17 C         142.1689  143.4776  161.8432 C.ar    1  UNL1        0.1682
     18 N         140.7679  144.0042  161.9426 N.ar    1  UNL1       -0.2304
     19 N         142.7844  143.2327  160.4974 N.am    1  UNL1       -0.2639
     20 C         144.1854  142.7061  160.3981 C.2     1  UNL1        0.2718
     21 O         144.8009  142.4613  159.0523 O.2     1  UNL1       -0.2707
     22 C         144.9710  142.4244  161.6445 C.3     1  UNL1        0.2898
     23 O         144.3554  142.6692  162.9903 O.3     1  UNL1       -0.4628
     24 H         142.2689  143.4176  159.6794 H       1  UNL1        0.1565
     25 C         139.9004  137.3465  163.4968 C.3     1  UNL1        0.0327
     26 C         143.4305  138.6134  165.9833 C.ar    1  UNL1        0.2249
     27 C         144.6378  139.2101  165.3227 C.ar    1  UNL1        0.0593
     28 C         144.6683  139.3845  163.8332 C.ar    1  UNL1        0.0254
     29 C         143.4917  138.9622  163.0043 C.ar    1  UNL1        0.0990
     30 N         143.5222  139.1365  161.5148 N.ar    1  UNL1       -0.2400
     31 C         142.3456  138.7142  160.6859 C.ar    1  UNL1        0.1281
     32 C         141.1382  138.1175  161.3466 C.ar    1  UNL1        0.1566
     33 F         139.9615  137.6953  160.5177 F       1  UNL1       -0.2028
     34 C         141.1077  137.9432  162.8361 C.ar    1  UNL1        0.0261
     35 C         142.2844  138.3655  163.6650 C.ar    1  UNL1        0.1002
     36 N         142.2538  138.1911  165.1545 N.ar    1  UNL1       -0.2104
     37 O         143.4000  138.4391  167.4729 O.3     1  UNL1       -0.4600
     38 C         142.6841  139.4399  168.3306 C.3     1  UNL1        0.2133
     39 C         141.3438  139.9658  167.9099 C.3     1  UNL1        0.1232
     40 C         140.3357  140.3649  168.9466 C.3     1  UNL1        0.3336
     41 F         139.7196  141.3287  167.9763 F       1  UNL1       -0.1945
     42 F         140.9517  139.4011  169.9168 F       1  UNL1       -0.1945
     43 N         139.4186  142.1101  170.6387 N.am    1  UNL1       -0.3244
     44 C         139.3276  140.7640  169.9831 C.2     1  UNL1        0.2808
     45 O         138.2285  139.8170  170.3641 O.2     1  UNL1       -0.2695
     46 H         138.7569  142.3721  171.3190 H       1  UNL1        0.1451
     47 H         140.1399  142.7317  170.3886 H       1  UNL1        0.1451
@<TRIPOS>BOND
     1    43    44   am
     2    44    45    2
     3    44    40    1
     4    40    41    1
     5    40    42    1
     6    40    39    1
     7    39    38    1
     8    38    37    1
     9    37    26    1
    10    26    27   ar
    11    27    28   ar
    12    28    29   ar
    13    29    30   ar
    14    30    31   ar
    15    31    32   ar
    16    32    33    1
    17    32    34   ar
    18    34    25    1
    19    25     1    1
    20     1     2    1
    21     2     3    1
    22     3     4    1
    23     4     5    1
    24     5    10    1
    25    10    12    1
    26    12    13    1
    27    13    14   ar
    28    14    15   ar
    29    15    16   ar
    30    16    17   ar
    31    17    18   ar
    32    17    19    1
    33    19    20   am
    34    20    21    2
    35    20    22    1
    36    22    23    1
    37     5     6    1
    38     6     7    1
    39     5     8    1
    40     8     9    1
    41    34    35   ar
    42    35    36   ar
    43    36    26   ar
    44    35    29   ar
    45     7     2    1
    46     9     2    1
    47    18    13   ar
    48    23    16    1
    49    43    46    1
    50    43    47    1
    51    10    11    1
    52    19    24    1
@<TRIPOS>MOLECULE
*****
 47 52 0 0 0
SMALL
GASTEIGER

@<TRIPOS>ATOM
      1 C         137.8901  143.9493  164.7130 C.3     1  UNL1        0.0320
      2 C         137.9314  142.6220  164.0155 C.3     1  UNL1        0.0932
      3 C         137.6921  142.5440  162.5368 C.3     1  UNL1        0.0286
      4 C         137.7334  141.2167  161.8393 C.3     1  UNL1        0.0193
      5 C         138.0140  139.9673  162.6205 C.3     1  UNL1        0.0700
      6 C         138.2532  140.0453  164.0993 C.3     1  UNL1        0.0193
      7 C         138.2120  141.3727  164.7968 C.3     1  UNL1        0.0286
      8 C         138.0014  140.6718  163.0466 C.3     1  UNL1        0.1562
      9 O         137.9641  141.8720  163.6773 O.3     1  UNL1       -0.3572
     10 N         138.0552  138.6400  161.9231 N.3     1  UNL1       -0.2926
     11 H         137.5973  138.7673  161.0206 H       1  UNL1        0.1236
     12 C         139.3726  137.9767  161.6504 C.3     1  UNL1        0.1152
     13 C         140.6015  138.8095  161.4357 C.ar    1  UNL1        0.0765
     14 C         141.8183  138.5835  162.2834 C.ar    1  UNL1        0.0193
     15 C         143.0472  139.4164  162.0687 C.ar    1  UNL1        0.0411
     16 C         143.0594  140.4753  161.0064 C.ar    1  UNL1        0.1708
     17 C         141.8427  140.7014  160.1588 C.ar    1  UNL1        0.1682
     18 N         140.6137  139.8685  160.3735 N.ar    1  UNL1       -0.2304
     19 N         141.8549  141.7604  159.0965 N.am    1  UNL1       -0.2639
     20 C         143.0837  142.5933  158.8819 C.2     1  UNL1        0.2718
     21 O         143.0959  143.6522  157.8196 O.2     1  UNL1       -0.2707
     22 C         144.3005  142.3672  159.7295 C.3     1  UNL1        0.2898
     23 O         144.2883  141.3082  160.7918 O.3     1  UNL1       -0.4628
     24 H         141.0563  141.9087  158.5402 H       1  UNL1        0.1565
     25 C         139.1648  144.6876  164.9965 C.3     1  UNL1        0.0327
     26 C         142.4678  141.9051  166.2606 C.ar    1  UNL1        0.2249
     27 C         143.6619  141.7073  165.3747 C.ar    1  UNL1        0.0593
     28 C         143.7552  142.4370  164.0675 C.ar    1  UNL1        0.0254
     29 C         142.6542  143.3645  163.6461 C.ar    1  UNL1        0.0990
     30 N         142.7474  144.0942  162.3389 N.ar    1  UNL1       -0.2400
     31 C         141.6465  145.0217  161.9175 C.ar    1  UNL1        0.1281
     32 C         140.4522  145.2195  162.8034 C.ar    1  UNL1        0.1566
     33 F         139.3512  146.1470  162.3820 F       1  UNL1       -0.2028
     34 C         140.3590  144.4898  164.1106 C.ar    1  UNL1        0.0261
     35 C         141.4600  143.5623  164.5320 C.ar    1  UNL1        0.1002
     36 N         141.3668  142.8325  165.8392 N.ar    1  UNL1       -0.2104
     37 O         142.3745  141.1753  167.5678 O.3     1  UNL1       -0.4600
     38 C         141.2340  140.2349  167.8221 C.3     1  UNL1        0.2133
     39 C         139.9742  140.7394  168.4612 C.3     1  UNL1        0.1232
     40 C         140.0480  141.7319  169.5835 C.3     1  UNL1        0.3336
     41 F         140.0478  140.6083  170.5772 F       1  UNL1       -0.1945
     42 F         140.0482  142.8555  168.5899 F       1  UNL1       -0.1945
     43 N         139.9226  144.1852  170.4295 N.am    1  UNL1       -0.3244
     44 C         140.1217  142.7243  170.7058 C.2     1  UNL1        0.2808
     45 O         140.3946  142.2560  172.1044 O.2     1  UNL1       -0.2695
     46 H         139.9710  144.8366  171.1661 H       1  UNL1        0.1451
     47 H         139.7434  144.4926  169.5115 H       1  UNL1        0.1451
@<TRIPOS>BOND
     1    43    44   am
     2    44    45    2
     3    44    40    1
     4    40    41    1
     5    40    42    1
     6    40    39    1
     7    39    38    1
     8    38    37    1
     9    37    26    1
    10    26    27   ar
    11    27    28   ar
    12    28    29   ar
    13    29    30   ar
    14    30    31   ar
    15    31    32   ar
    16    32    33    1
    17    32    34   ar
    18    34    25    1
    19    25     1    1
    20     1     2    1
    21     2     3    1
    22     3     4    1
    23     4     5    1
    24     5    10    1
    25    10    12    1
    26    12    13    1
    27    13    14   ar
    28    14    15   ar
    29    15    16   ar
    30    16    17   ar
    31    17    18   ar
    32    17    19    1
    33    19    20   am
    34    20    21    2
    35    20    22    1
    36    22    23    1
    37     5     6    1
    38     6     7    1
    39     5     8    1
    40     8     9    1
    41    34    35   ar
    42    35    36   ar
    43    36    26   ar
    44    35    29   ar
    45     7     2    1
    46     9     2    1
    47    18    13   ar
    48    23    16    1
    49    43    46    1
    50    43    47    1
    51    10    11    1
    52    19    24    1
@<TRIPOS>MOLECULE
*****
 47 52 0 0 0
SMALL
GASTEIGER

@<TRIPOS>ATOM
      1 C         138.5648  143.8424  163.0691 C.3     1  UNL1        0.0320
      2 C         139.9922  143.7794  163.5259 C.3     1  UNL1        0.0932
      3 C         140.3189  143.2663  164.8970 C.3     1  UNL1        0.0286
      4 C         141.7462  143.2032  165.3538 C.3     1  UNL1        0.0193
      5 C         142.8469  143.6532  164.4394 C.3     1  UNL1        0.0700
      6 C         142.5202  144.1663  163.0682 C.3     1  UNL1        0.0193
      7 C         141.0928  144.2293  162.6115 C.3     1  UNL1        0.0286
      8 C         142.0799  143.7065  164.1448 C.3     1  UNL1        0.1562
      9 O         140.7893  143.7635  163.7317 O.3     1  UNL1       -0.3572
     10 N         144.2743  143.5901  164.8961 N.3     1  UNL1       -0.2926
     11 H         144.2614  143.6635  165.9134 H       1  UNL1        0.1236
     12 C         145.1177  142.3965  164.5587 C.3     1  UNL1        0.1152
     13 C         144.5001  141.2090  163.8817 C.ar    1  UNL1        0.0765
     14 C         143.8745  140.1196  164.7014 C.ar    1  UNL1        0.0193
     15 C         143.2569  138.9321  164.0244 C.ar    1  UNL1        0.0411
     16 C         143.2649  138.8340  162.5276 C.ar    1  UNL1        0.1708
     17 C         143.8904  139.9233  161.7079 C.ar    1  UNL1        0.1682
     18 N         144.5080  141.1109  162.3849 N.ar    1  UNL1       -0.2304
     19 N         143.8983  139.8252  160.2111 N.am    1  UNL1       -0.2639
     20 C         143.2807  138.6377  159.5341 C.2     1  UNL1        0.2718
     21 O         143.2887  138.5395  158.0373 O.2     1  UNL1       -0.2707
     22 C         142.6552  137.5483  160.3538 C.3     1  UNL1        0.2898
     23 O         142.6472  137.6464  161.8506 O.3     1  UNL1       -0.4628
     24 H         144.3089  140.5402  159.6731 H       1  UNL1        0.1565
     25 C         137.7244  142.5999  163.0607 C.3     1  UNL1        0.0327
     26 C         138.7788  139.0109  165.5622 C.ar    1  UNL1        0.2249
     27 C         139.2911  137.7634  164.9055 C.ar    1  UNL1        0.0593
     28 C         139.4519  137.7122  163.4150 C.ar    1  UNL1        0.0254
     29 C         139.1005  138.9085  162.5812 C.ar    1  UNL1        0.0990
     30 N         139.2613  138.8573  161.0907 N.ar    1  UNL1       -0.2400
     31 C         138.9098  140.0536  160.2569 C.ar    1  UNL1        0.1281
     32 C         138.3975  141.3012  160.9136 C.ar    1  UNL1        0.1566
     33 F         138.0461  142.4975  160.0798 F       1  UNL1       -0.2028
     34 C         138.2367  141.3524  162.4040 C.ar    1  UNL1        0.0261
     35 C         138.5882  140.1560  163.2379 C.ar    1  UNL1        0.1002
     36 N         138.4274  140.2072  164.7283 N.ar    1  UNL1       -0.2104
     37 O         138.6180  139.0621  167.0526 O.3     1  UNL1       -0.4600
     38 C         139.4438  140.0161  167.8638 C.3     1  UNL1        0.2133
     39 C         139.1836  140.1715  169.3328 C.3     1  UNL1        0.1232
     40 C         140.2916  140.5978  170.2498 C.3     1  UNL1        0.3336
     41 F         139.5585  141.8732  170.5426 F       1  UNL1       -0.1945
     42 F         141.0247  139.3224  169.9569 F       1  UNL1       -0.1945
     43 N         142.6244  140.1704  171.3105 N.am    1  UNL1       -0.3244
     44 C         141.3995  141.0242  171.1666 C.2     1  UNL1        0.2808
     45 O         141.2826  142.3043  171.9397 O.2     1  UNL1       -0.2695
     46 H         143.3516  140.4502  171.9123 H       1  UNL1        0.1451
     47 H         142.7012  139.3302  170.8031 H       1  UNL1        0.1451
@<TRIPOS>BOND
     1    43    44   am
     2    44    45    2
     3    44    40    1
     4    40    41    1
     5    40    42    1
     6    40    39    1
     7    39    38    1
     8    38    37    1
     9    37    26    1
    10    26    27   ar
    11    27    28   ar
    12    28    29   ar
    13    29    30   ar
    14    30    31   ar
    15    31    32   ar
    16    32    33    1
    17    32    34   ar
    18    34    25    1
    19    25     1    1
    20     1     2    1
    21     2     3    1
    22     3     4    1
    23     4     5    1
    24     5    10    1
    25    10    12    1
    26    12    13    1
    27    13    14   ar
    28    14    15   ar
    29    15    16   ar
    30    16    17   ar
    31    17    18   ar
    32    17    19    1
    33    19    20   am
    34    20    21    2
    35    20    22    1
    36    22    23    1
    37     5     6    1
    38     6     7    1
    39     5     8    1
    40     8     9    1
    41    34    35   ar
    42    35    36   ar
    43    36    26   ar
    44    35    29   ar
    45     7     2    1
    46     9     2    1
    47    18    13   ar
    48    23    16    1
    49    43    46    1
    50    43    47    1
    51    10    11    1
    52    19    24    1
@<TRIPOS>MOLECULE
*****
 47 52 0 0 0
SMALL
GASTEIGER

@<TRIPOS>ATOM
      1 C         144.2585  138.7577  163.8738 C.3     1  UNL1        0.0320
      2 C         142.9228  138.5599  163.2205 C.3     1  UNL1        0.0932
      3 C         142.7488  138.8644  161.7621 C.3     1  UNL1        0.0286
      4 C         141.4131  138.6666  161.1088 C.3     1  UNL1        0.0193
      5 C         140.2514  138.1644  161.9140 C.3     1  UNL1        0.0700
      6 C         140.4254  137.8599  163.3724 C.3     1  UNL1        0.0193
      7 C         141.7612  138.0577  164.0257 C.3     1  UNL1        0.0286
      8 C         140.9640  138.2571  162.3159 C.3     1  UNL1        0.1562
      9 O         142.1718  138.4359  162.9066 O.3     1  UNL1       -0.3572
     10 N         138.9157  137.9666  161.2607 N.3     1  UNL1       -0.2926
     11 H         138.5976  137.0323  161.5179 H       1  UNL1        0.1236
     12 C         137.7866  138.9069  161.5626 C.3     1  UNL1        0.1152
     13 C         138.0666  140.3588  161.8143 C.ar    1  UNL1        0.0765
     14 C         137.4245  141.0559  162.9771 C.ar    1  UNL1        0.0193
     15 C         137.7045  142.5078  163.2288 C.ar    1  UNL1        0.0411
     16 C         138.6266  143.2628  162.3178 C.ar    1  UNL1        0.1708
     17 C         139.2686  142.5658  161.1551 C.ar    1  UNL1        0.1682
     18 N         138.9886  141.1138  160.9033 N.ar    1  UNL1       -0.2304
     19 N         140.1906  143.3208  160.2441 N.am    1  UNL1       -0.2639
     20 C         140.4706  144.7727  160.4959 C.2     1  UNL1        0.2718
     21 O         141.3926  145.5277  159.5849 O.2     1  UNL1       -0.2707
     22 C         139.8286  145.4698  161.6587 C.3     1  UNL1        0.2898
     23 O         138.9065  144.7148  162.5696 O.3     1  UNL1       -0.4628
     24 H         140.6120  142.8633  159.4810 H       1  UNL1        0.1565
     25 C         144.6335  140.1026  164.4221 C.3     1  UNL1        0.0327
     26 C         141.2355  141.0496  167.2162 C.ar    1  UNL1        0.2249
     27 C         140.3580  142.2375  166.9542 C.ar    1  UNL1        0.0593
     28 C         140.6131  143.1099  165.7609 C.ar    1  UNL1        0.0254
     29 C         141.7458  142.7942  164.8296 C.ar    1  UNL1        0.0990
     30 N         142.0009  143.6665  163.6363 N.ar    1  UNL1       -0.2400
     31 C         143.1335  143.3509  162.7049 C.ar    1  UNL1        0.1281
     32 C         144.0111  142.1629  162.9669 C.ar    1  UNL1        0.1566
     33 F         145.1437  141.8472  162.0355 F       1  UNL1       -0.2028
     34 C         143.7560  141.2906  164.1602 C.ar    1  UNL1        0.0261
     35 C         142.6233  141.6063  165.0916 C.ar    1  UNL1        0.1002
     36 N         142.3682  140.7339  166.2849 N.ar    1  UNL1       -0.2104
     37 O         140.9804  140.1773  168.4095 O.3     1  UNL1       -0.4600
     38 C         142.1279  139.5186  169.1161 C.3     1  UNL1        0.2133
     39 C         142.8608  140.2510  170.2008 C.3     1  UNL1        0.1232
     40 C         142.6663  141.7285  170.3717 C.3     1  UNL1        0.3336
     41 F         141.6233  141.4701  171.4183 F       1  UNL1       -0.1945
     42 F         143.7093  141.9869  169.3252 F       1  UNL1       -0.1945
     43 N         141.1627  143.8380  170.1724 N.am    1  UNL1       -0.3244
     44 C         142.4718  143.2060  170.5427 C.2     1  UNL1        0.2808
     45 O         143.5863  144.0515  171.0839 O.2     1  UNL1       -0.2695
     46 H         141.0351  144.8077  170.2846 H       1  UNL1        0.1451
     47 H         140.4312  143.2830  169.8171 H       1  UNL1        0.1451
@<TRIPOS>BOND
     1    43    44   am
     2    44    45    2
     3    44    40    1
     4    40    41    1
     5    40    42    1
     6    40    39    1
     7    39    38    1
     8    38    37    1
     9    37    26    1
    10    26    27   ar
    11    27    28   ar
    12    28    29   ar
    13    29    30   ar
    14    30    31   ar
    15    31    32   ar
    16    32    33    1
    17    32    34   ar
    18    34    25    1
    19    25     1    1
    20     1     2    1
    21     2     3    1
    22     3     4    1
    23     4     5    1
    24     5    10    1
    25    10    12    1
    26    12    13    1
    27    13    14   ar
    28    14    15   ar
    29    15    16   ar
    30    16    17   ar
    31    17    18   ar
    32    17    19    1
    33    19    20   am
    34    20    21    2
    35    20    22    1
    36    22    23    1
    37     5     6    1
    38     6     7    1
    39     5     8    1
    40     8     9    1
    41    34    35   ar
    42    35    36   ar
    43    36    26   ar
    44    35    29   ar
    45     7     2    1
    46     9     2    1
    47    18    13   ar
    48    23    16    1
    49    43    46    1
    50    43    47    1
    51    10    11    1
    52    19    24    1
