@<TRIPOS>MOLECULE
*****
 31 33 0 0 0
SMALL
GASTEIGER

@<TRIPOS>ATOM
      1 C         138.5295  139.8923  159.4603 C.3     1  UNL1        0.1684
      2 N         139.1635  139.1167  158.3437 N.am    1  UNL1       -0.2925
      3 C         140.5423  138.5506  158.5123 C.2     1  UNL1        0.2375
      4 O         141.2871  138.7600  159.7973 O.2     1  UNL1       -0.2736
      5 H         138.6746  138.9793  157.5003 H       1  UNL1        0.1504
      6 C         141.1763  137.7751  157.3957 C.3     1  UNL1        0.1339
      7 C         142.6375  137.9431  157.1012 C.3     1  UNL1        0.0543
      8 C         143.2715  137.1676  155.9847 C.3     1  UNL1        0.1137
      9 O         144.7327  137.3356  155.6901 O.3     1  UNL1       -0.3844
     10 C         142.4443  136.2242  155.1627 C.3     1  UNL1        0.0464
     11 C         140.9832  136.0562  155.4572 C.3     1  UNL1        0.0714
     12 N         140.3491  136.8317  156.5737 N.3     1  UNL1       -0.2912
     13 H         144.9796  136.7667  154.9443 H       1  UNL1        0.2103
     14 H         139.9532  136.1483  157.2191 H       1  UNL1        0.1236
     15 C         138.5309  141.3919  159.4271 C.1     1  UNL1        0.0927
     16 N         138.5323  142.8915  159.3938 N.1     1  UNL1       -0.1942
     17 C         137.8941  139.1682  160.6100 C.3     1  UNL1        0.0616
     18 C         138.9909  140.2557  164.8366 C.ar    1  UNL1       -0.0000
     19 C         138.0429  141.1218  164.0613 C.ar    1  UNL1       -0.0003
     20 C         137.6773  140.7592  162.6524 C.ar    1  UNL1       -0.0042
     21 C         138.2597  139.5307  162.0189 C.ar    1  UNL1       -0.0194
     22 C         139.2077  138.6646  162.7942 C.ar    1  UNL1       -0.0042
     23 C         139.5733  139.0272  164.2031 C.ar    1  UNL1       -0.0003
     24 C         140.0877  141.3433  169.0632 C.ar    1  UNL1        0.0684
     25 C         140.4253  142.2751  167.9374 C.ar    1  UNL1        0.0103
     26 C         140.0596  141.9126  166.5285 C.ar    1  UNL1        0.0007
     27 C         139.3565  140.6182  166.2455 C.ar    1  UNL1        0.0000
     28 C         139.0190  139.6864  167.3714 C.ar    1  UNL1        0.0007
     29 C         139.3846  140.0489  168.7803 C.ar    1  UNL1        0.0103
     30 N         140.8190  142.0683  171.8810 N.1     1  UNL1       -0.1908
     31 C         140.4533  141.7058  170.4721 C.1     1  UNL1        0.1004
@<TRIPOS>BOND
     1    30    31    3
     2    31    24    1
     3    24    25   ar
     4    25    26   ar
     5    26    27   ar
     6    27    18    1
     7    18    19   ar
     8    19    20   ar
     9    20    21   ar
    10    21    17    1
    11     1    17    1
    12     1    15    1
    13    15    16    3
    14     1     2    1
    15     2     3   am
    16     3     4    2
    17     6     3    1
    18     6     7    1
    19     7     8    1
    20     8     9    1
    21     8    10    1
    22    10    11    1
    23    11    12    1
    24    21    22   ar
    25    22    23   ar
    26    27    28   ar
    27    28    29   ar
    28    29    24   ar
    29    23    18   ar
    30    12     6    1
    31     2     5    1
    32     9    13    1
    33    12    14    1
@<TRIPOS>MOLECULE
*****
 31 33 0 0 0
SMALL
GASTEIGER

@<TRIPOS>ATOM
      1 C         142.2098  139.4851  167.2906 C.3     1  UNL1        0.1684
      2 N         141.0217  140.2142  166.7365 N.am    1  UNL1       -0.2925
      3 C         141.2142  141.4911  165.9733 C.2     1  UNL1        0.2375
      4 O         142.5948  142.0389  165.7641 O.2     1  UNL1       -0.2736
      5 H         140.1155  139.8547  166.8738 H       1  UNL1        0.1504
      6 C         140.0261  142.2202  165.4193 C.3     1  UNL1        0.1339
      7 C         138.9857  141.4739  164.6378 C.3     1  UNL1        0.0543
      8 C         137.7977  142.2029  164.0838 C.3     1  UNL1        0.1137
      9 O         136.7573  141.4567  163.3023 O.3     1  UNL1       -0.3844
     10 C         137.6500  143.6782  164.3112 C.3     1  UNL1        0.0464
     11 C         138.6904  144.4244  165.0927 C.3     1  UNL1        0.0714
     12 N         139.8784  143.6954  165.6467 N.3     1  UNL1       -0.2912
     13 H         136.0628  142.0718  163.0189 H       1  UNL1        0.2103
     14 H         139.8667  143.8379  166.6566 H       1  UNL1        0.1236
     15 C         142.6181  139.6930  168.7189 C.1     1  UNL1        0.0927
     16 N         143.0265  139.9008  170.1472 N.1     1  UNL1       -0.1942
     17 C         142.9895  138.5483  166.4164 C.3     1  UNL1        0.0616
     18 C         142.0825  138.2974  162.0158 C.ar    1  UNL1       -0.0000
     19 C         143.2708  139.0784  162.4934 C.ar    1  UNL1       -0.0003
     20 C         143.5731  139.1621  163.9602 C.ar    1  UNL1       -0.0042
     21 C         142.6872  138.4647  164.9495 C.ar    1  UNL1       -0.0194
     22 C         141.4989  137.6837  164.4720 C.ar    1  UNL1       -0.0042
     23 C         141.1966  137.6000  163.0051 C.ar    1  UNL1       -0.0003
     24 C         141.1756  138.0466  157.6153 C.ar    1  UNL1        0.0684
     25 C         142.5464  137.7047  158.1192 C.ar    1  UNL1        0.0103
     26 C         142.8487  137.7884  159.5861 C.ar    1  UNL1        0.0007
     27 C         141.7802  138.2138  160.5490 C.ar    1  UNL1        0.0000
     28 C         140.4094  138.5557  160.0451 C.ar    1  UNL1        0.0007
     29 C         140.1071  138.4720  158.5782 C.ar    1  UNL1        0.0103
     30 N         140.5710  137.8793  154.6816 N.1     1  UNL1       -0.1908
     31 C         140.8733  137.9630  156.1485 C.1     1  UNL1        0.1004
@<TRIPOS>BOND
     1    30    31    3
     2    31    24    1
     3    24    25   ar
     4    25    26   ar
     5    26    27   ar
     6    27    18    1
     7    18    19   ar
     8    19    20   ar
     9    20    21   ar
    10    21    17    1
    11     1    17    1
    12     1    15    1
    13    15    16    3
    14     1     2    1
    15     2     3   am
    16     3     4    2
    17     6     3    1
    18     6     7    1
    19     7     8    1
    20     8     9    1
    21     8    10    1
    22    10    11    1
    23    11    12    1
    24    21    22   ar
    25    22    23   ar
    26    27    28   ar
    27    28    29   ar
    28    29    24   ar
    29    23    18   ar
    30    12     6    1
    31     2     5    1
    32     9    13    1
    33    12    14    1
@<TRIPOS>MOLECULE
*****
 31 33 0 0 0
SMALL
GASTEIGER

@<TRIPOS>ATOM
      1 C         139.0998  138.8372  159.9074 C.3     1  UNL1        0.1684
      2 N         138.4673  139.3294  158.6393 N.am    1  UNL1       -0.2925
      3 C         138.0892  140.7744  158.5016 C.2     1  UNL1        0.2375
      4 O         138.3435  141.7272  159.6318 O.2     1  UNL1       -0.2736
      5 H         138.3004  138.7040  157.8975 H       1  UNL1        0.1504
      6 C         137.4568  141.2666  157.2335 C.3     1  UNL1        0.1339
      7 C         137.5320  142.7207  156.8733 C.3     1  UNL1        0.0543
      8 C         136.8996  143.2129  155.6053 C.3     1  UNL1        0.1137
      9 O         136.9748  144.6671  155.2450 O.3     1  UNL1       -0.3844
     10 C         136.1920  142.2510  154.6976 C.3     1  UNL1        0.0464
     11 C         136.1168  140.7968  155.0579 C.3     1  UNL1        0.0714
     12 N         136.7492  140.3046  156.3258 N.3     1  UNL1       -0.2912
     13 H         136.5193  144.8151  154.4015 H       1  UNL1        0.2103
     14 H         137.4320  139.5956  156.0584 H       1  UNL1        0.1236
     15 C         140.5939  138.7819  160.0279 C.1     1  UNL1        0.0927
     16 N         142.0880  138.7267  160.1485 N.1     1  UNL1       -0.1942
     17 C         138.2381  138.4004  161.0548 C.3     1  UNL1        0.0616
     18 C         139.1264  139.8583  165.2184 C.ar    1  UNL1       -0.0000
     19 C         138.5269  140.7917  164.2088 C.ar    1  UNL1       -0.0003
     20 C         138.2308  140.3058  162.8210 C.ar    1  UNL1       -0.0042
     21 C         138.5342  138.8863  162.4427 C.ar    1  UNL1       -0.0194
     22 C         139.1337  137.9529  163.4522 C.ar    1  UNL1       -0.0042
     23 C         139.4298  138.4389  164.8401 C.ar    1  UNL1       -0.0003
     24 C         140.0147  141.3162  169.3820 C.ar    1  UNL1        0.0684
     25 C         139.2083  140.0676  169.1806 C.ar    1  UNL1        0.0103
     26 C         138.9122  139.5816  167.7928 C.ar    1  UNL1        0.0007
     27 C         139.4225  140.3443  166.6062 C.ar    1  UNL1        0.0000
     28 C         140.2289  141.5929  166.8076 C.ar    1  UNL1        0.0007
     29 C         140.5250  142.0789  168.1954 C.ar    1  UNL1        0.0103
     30 N         140.6069  142.2882  172.1577 N.1     1  UNL1       -0.1908
     31 C         140.3108  141.8022  170.7698 C.1     1  UNL1        0.1004
@<TRIPOS>BOND
     1    30    31    3
     2    31    24    1
     3    24    25   ar
     4    25    26   ar
     5    26    27   ar
     6    27    18    1
     7    18    19   ar
     8    19    20   ar
     9    20    21   ar
    10    21    17    1
    11     1    17    1
    12     1    15    1
    13    15    16    3
    14     1     2    1
    15     2     3   am
    16     3     4    2
    17     6     3    1
    18     6     7    1
    19     7     8    1
    20     8     9    1
    21     8    10    1
    22    10    11    1
    23    11    12    1
    24    21    22   ar
    25    22    23   ar
    26    27    28   ar
    27    28    29   ar
    28    29    24   ar
    29    23    18   ar
    30    12     6    1
    31     2     5    1
    32     9    13    1
    33    12    14    1
@<TRIPOS>MOLECULE
*****
 31 33 0 0 0
SMALL
GASTEIGER

@<TRIPOS>ATOM
      1 C         142.6996  138.4499  159.4466 C.3     1  UNL1        0.1684
      2 N         142.6058  139.9401  159.5909 N.am    1  UNL1       -0.2925
      3 C         141.2969  140.5777  159.9513 C.2     1  UNL1        0.2375
      4 O         140.0817  139.7253  160.1675 O.2     1  UNL1       -0.2736
      5 H         143.4034  140.4995  159.4490 H       1  UNL1        0.1504
      6 C         141.2030  142.0679  160.0956 C.3     1  UNL1        0.1339
      7 C         142.1293  142.7909  161.0280 C.3     1  UNL1        0.0543
      8 C         142.0355  144.2810  161.1722 C.3     1  UNL1        0.1137
      9 O         142.9617  145.0040  162.1046 O.3     1  UNL1       -0.3844
     10 C         141.0155  145.0480  160.3841 C.3     1  UNL1        0.0464
     11 C         140.0892  144.3250  159.4518 C.3     1  UNL1        0.0714
     12 N         140.1830  142.8349  159.3075 N.3     1  UNL1       -0.2912
     13 H         142.7693  145.9544  162.0790 H       1  UNL1        0.2103
     14 H         140.3686  142.6456  158.3225 H       1  UNL1        0.1236
     15 C         142.3263  137.7971  158.1488 C.1     1  UNL1        0.0927
     16 N         141.9529  137.1443  156.8509 N.1     1  UNL1       -0.1942
     17 C         143.1668  137.6127  160.6002 C.3     1  UNL1        0.0616
     18 C         142.1731  138.8349  164.8155 C.ar    1  UNL1       -0.0000
     19 C         141.2218  137.9719  164.0408 C.ar    1  UNL1       -0.0003
     20 C         141.5530  137.5645  162.6357 C.ar    1  UNL1       -0.0042
     21 C         142.8356  138.0201  162.0053 C.ar    1  UNL1       -0.0194
     22 C         143.7869  138.8831  162.7800 C.ar    1  UNL1       -0.0042
     23 C         143.4557  139.2905  164.1851 C.ar    1  UNL1       -0.0003
     24 C         141.1794  140.0572  169.0307 C.ar    1  UNL1        0.0684
     25 C         142.5513  139.5482  168.7011 C.ar    1  UNL1        0.0103
     26 C         142.8825  139.1407  167.2960 C.ar    1  UNL1        0.0007
     27 C         141.8419  139.2423  166.2205 C.ar    1  UNL1        0.0000
     28 C         140.4700  139.7514  166.5502 C.ar    1  UNL1        0.0007
     29 C         140.1387  140.1588  167.9553 C.ar    1  UNL1        0.0103
     30 N         140.5169  140.8720  171.8409 N.1     1  UNL1       -0.1908
     31 C         140.8482  140.4646  170.4358 C.1     1  UNL1        0.1004
@<TRIPOS>BOND
     1    30    31    3
     2    31    24    1
     3    24    25   ar
     4    25    26   ar
     5    26    27   ar
     6    27    18    1
     7    18    19   ar
     8    19    20   ar
     9    20    21   ar
    10    21    17    1
    11     1    17    1
    12     1    15    1
    13    15    16    3
    14     1     2    1
    15     2     3   am
    16     3     4    2
    17     6     3    1
    18     6     7    1
    19     7     8    1
    20     8     9    1
    21     8    10    1
    22    10    11    1
    23    11    12    1
    24    21    22   ar
    25    22    23   ar
    26    27    28   ar
    27    28    29   ar
    28    29    24   ar
    29    23    18   ar
    30    12     6    1
    31     2     5    1
    32     9    13    1
    33    12    14    1
@<TRIPOS>MOLECULE
*****
 31 33 0 0 0
SMALL
GASTEIGER

@<TRIPOS>ATOM
      1 C         138.2097  140.2749  159.6102 C.3     1  UNL1        0.1684
      2 N         139.6853  140.5059  159.7485 N.am    1  UNL1       -0.2925
      3 C         140.2021  141.8731  160.0858 C.2     1  UNL1        0.2375
      4 O         139.2432  143.0093  160.2847 O.2     1  UNL1       -0.2736
      5 H         140.3147  139.7602  159.6180 H       1  UNL1        0.1504
      6 C         141.6778  142.1041  160.2242 C.3     1  UNL1        0.1339
      7 C         142.1891  143.1250  161.1969 C.3     1  UNL1        0.0543
      8 C         143.6647  143.3561  161.3353 C.3     1  UNL1        0.1137
      9 O         144.1760  144.3770  162.3081 O.3     1  UNL1       -0.3844
     10 C         144.6289  142.5662  160.5009 C.3     1  UNL1        0.0464
     11 C         144.1176  141.5453  159.5282 C.3     1  UNL1        0.0714
     12 N         142.6420  141.3143  159.3898 N.3     1  UNL1       -0.2912
     13 H         145.1451  144.4003  162.2728 H       1  UNL1        0.2103
     14 H         142.4770  140.3302  159.6012 H       1  UNL1        0.1236
     15 C         137.5394  140.4810  158.2842 C.1     1  UNL1        0.0927
     16 N         136.8691  140.6871  156.9582 N.1     1  UNL1       -0.1942
     17 C         137.4043  139.8379  160.7978 C.3     1  UNL1        0.0616
     18 C         138.9194  140.6331  164.9597 C.ar    1  UNL1       -0.0000
     19 C         138.0566  141.6472  164.2692 C.ar    1  UNL1       -0.0003
     20 C         137.5516  141.3822  162.8818 C.ar    1  UNL1       -0.0042
     21 C         137.9094  140.1029  162.1851 C.ar    1  UNL1       -0.0194
     22 C         138.7722  139.0888  162.8757 C.ar    1  UNL1       -0.0042
     23 C         139.2772  139.3538  164.2630 C.ar    1  UNL1       -0.0003
     24 C         140.4345  141.4283  169.1217 C.ar    1  UNL1        0.0684
     25 C         139.7682  140.1229  168.8028 C.ar    1  UNL1        0.0103
     26 C         139.2631  139.8578  167.4155 C.ar    1  UNL1        0.0007
     27 C         139.4245  140.8981  166.3471 C.ar    1  UNL1        0.0000
     28 C         140.0908  142.2036  166.6660 C.ar    1  UNL1        0.0007
     29 C         140.5959  142.4687  168.0533 C.ar    1  UNL1        0.0103
     30 N         141.4446  141.9584  171.8964 N.1     1  UNL1       -0.1908
     31 C         140.9396  141.6934  170.5091 C.1     1  UNL1        0.1004
@<TRIPOS>BOND
     1    30    31    3
     2    31    24    1
     3    24    25   ar
     4    25    26   ar
     5    26    27   ar
     6    27    18    1
     7    18    19   ar
     8    19    20   ar
     9    20    21   ar
    10    21    17    1
    11     1    17    1
    12     1    15    1
    13    15    16    3
    14     1     2    1
    15     2     3   am
    16     3     4    2
    17     6     3    1
    18     6     7    1
    19     7     8    1
    20     8     9    1
    21     8    10    1
    22    10    11    1
    23    11    12    1
    24    21    22   ar
    25    22    23   ar
    26    27    28   ar
    27    28    29   ar
    28    29    24   ar
    29    23    18   ar
    30    12     6    1
    31     2     5    1
    32     9    13    1
    33    12    14    1
@<TRIPOS>MOLECULE
*****
 31 33 0 0 0
SMALL
GASTEIGER

@<TRIPOS>ATOM
      1 C         139.2426  139.0432  159.8184 C.3     1  UNL1        0.1684
      2 N         139.1695  140.5359  159.9473 N.am    1  UNL1       -0.2925
      3 C         140.3577  141.3049  160.4439 C.2     1  UNL1        0.2375
      4 O         141.6190  140.5813  160.8118 O.2     1  UNL1       -0.2736
      5 H         138.3416  141.0109  159.7058 H       1  UNL1        0.1504
      6 C         140.2845  142.7977  160.5728 C.3     1  UNL1        0.1339
      7 C         140.0365  143.4234  161.9133 C.3     1  UNL1        0.0543
      8 C         139.9633  144.9161  162.0422 C.3     1  UNL1        0.1137
      9 O         139.7153  145.5418  163.3827 O.3     1  UNL1       -0.3844
     10 C         140.1382  145.7829  160.8307 C.3     1  UNL1        0.0464
     11 C         140.3863  145.1571  159.4902 C.3     1  UNL1        0.0714
     12 N         140.4594  143.6645  159.3613 N.3     1  UNL1       -0.2912
     13 H         139.6977  146.5073  163.2906 H       1  UNL1        0.2103
     14 H         141.3775  143.4471  158.9737 H       1  UNL1        0.1236
     15 C         139.6472  138.4220  158.5144 C.1     1  UNL1        0.0927
     16 N         140.0517  137.8007  157.2104 N.1     1  UNL1       -0.1942
     17 C         138.9112  138.1718  160.9934 C.3     1  UNL1        0.0616
     18 C         139.5217  139.7097  165.1782 C.ar    1  UNL1       -0.0000
     19 C         138.3514  140.1834  164.3684 C.ar    1  UNL1       -0.0003
     20 C         138.1479  139.6708  162.9734 C.ar    1  UNL1       -0.0042
     21 C         139.1147  138.6844  162.3884 C.ar    1  UNL1       -0.0194
     22 C         140.2850  138.2107  163.1982 C.ar    1  UNL1       -0.0042
     23 C         140.4885  138.7233  164.5931 C.ar    1  UNL1       -0.0003
     24 C         140.1323  141.2475  169.3630 C.ar    1  UNL1        0.0684
     25 C         139.2144  140.0870  169.1169 C.ar    1  UNL1        0.0103
     26 C         139.0109  139.5743  167.7219 C.ar    1  UNL1        0.0007
     27 C         139.7252  140.2223  166.5731 C.ar    1  UNL1        0.0000
     28 C         140.6431  141.3828  166.8192 C.ar    1  UNL1        0.0007
     29 C         140.8466  141.8954  168.2142 C.ar    1  UNL1        0.0103
     30 N         140.5393  142.2727  172.1528 N.1     1  UNL1       -0.1908
     31 C         140.3358  141.7601  170.7579 C.1     1  UNL1        0.1004
@<TRIPOS>BOND
     1    30    31    3
     2    31    24    1
     3    24    25   ar
     4    25    26   ar
     5    26    27   ar
     6    27    18    1
     7    18    19   ar
     8    19    20   ar
     9    20    21   ar
    10    21    17    1
    11     1    17    1
    12     1    15    1
    13    15    16    3
    14     1     2    1
    15     2     3   am
    16     3     4    2
    17     6     3    1
    18     6     7    1
    19     7     8    1
    20     8     9    1
    21     8    10    1
    22    10    11    1
    23    11    12    1
    24    21    22   ar
    25    22    23   ar
    26    27    28   ar
    27    28    29   ar
    28    29    24   ar
    29    23    18   ar
    30    12     6    1
    31     2     5    1
    32     9    13    1
    33    12    14    1
@<TRIPOS>MOLECULE
*****
 31 33 0 0 0
SMALL
GASTEIGER

@<TRIPOS>ATOM
      1 C         138.4246  138.5482  165.5630 C.3     1  UNL1        0.1684
      2 N         138.4275  139.9518  165.0336 N.am    1  UNL1       -0.2925
      3 C         139.6363  140.8204  165.2180 C.2     1  UNL1        0.2375
      4 O         140.8424  140.2857  165.9319 O.2     1  UNL1       -0.2736
      5 H         137.6360  140.3028  164.5651 H       1  UNL1        0.1504
      6 C         139.6392  142.2240  164.6886 C.3     1  UNL1        0.1339
      7 C         138.4606  142.7361  163.9149 C.3     1  UNL1        0.0543
      8 C         138.4635  144.1395  163.3855 C.3     1  UNL1        0.1137
      9 O         137.2849  144.6516  162.6117 O.3     1  UNL1       -0.3844
     10 C         139.6449  145.0308  163.6298 C.3     1  UNL1        0.0464
     11 C         140.8235  144.5187  164.4035 C.3     1  UNL1        0.0714
     12 N         140.8206  143.1153  164.9329 N.3     1  UNL1       -0.2912
     13 H         137.4477  145.5698  162.3446 H       1  UNL1        0.2103
     14 H         140.9351  143.1819  165.9443 H       1  UNL1        0.1236
     15 C         137.6898  138.2263  166.8305 C.1     1  UNL1        0.0927
     16 N         136.9550  137.9043  168.0979 N.1     1  UNL1       -0.1942
     17 C         139.1565  137.4668  164.8250 C.3     1  UNL1        0.0616
     18 C         140.6328  138.2023  160.6382 C.ar    1  UNL1       -0.0000
     19 C         139.1604  138.1992  160.9245 C.ar    1  UNL1       -0.0003
     20 C         138.6683  137.9540  162.3202 C.ar    1  UNL1       -0.0042
     21 C         139.6486  137.7120  163.4294 C.ar    1  UNL1       -0.0194
     22 C         141.1210  137.7151  163.1430 C.ar    1  UNL1       -0.0042
     23 C         141.6131  137.9603  161.7474 C.ar    1  UNL1       -0.0003
     24 C         142.1091  138.9379  156.4513 C.ar    1  UNL1        0.0684
     25 C         140.6794  138.5489  156.6850 C.ar    1  UNL1        0.0103
     26 C         140.1873  138.3037  158.0806 C.ar    1  UNL1        0.0007
     27 C         141.1249  138.4475  159.2425 C.ar    1  UNL1        0.0000
     28 C         142.5546  138.8364  159.0089 C.ar    1  UNL1        0.0007
     29 C         143.0467  139.0816  157.6133 C.ar    1  UNL1        0.0103
     30 N         143.0933  139.4282  153.6601 N.1     1  UNL1       -0.1908
     31 C         142.6012  139.1830  155.0557 C.1     1  UNL1        0.1004
@<TRIPOS>BOND
     1    30    31    3
     2    31    24    1
     3    24    25   ar
     4    25    26   ar
     5    26    27   ar
     6    27    18    1
     7    18    19   ar
     8    19    20   ar
     9    20    21   ar
    10    21    17    1
    11     1    17    1
    12     1    15    1
    13    15    16    3
    14     1     2    1
    15     2     3   am
    16     3     4    2
    17     6     3    1
    18     6     7    1
    19     7     8    1
    20     8     9    1
    21     8    10    1
    22    10    11    1
    23    11    12    1
    24    21    22   ar
    25    22    23   ar
    26    27    28   ar
    27    28    29   ar
    28    29    24   ar
    29    23    18   ar
    30    12     6    1
    31     2     5    1
    32     9    13    1
    33    12    14    1
@<TRIPOS>MOLECULE
*****
 31 33 0 0 0
SMALL
GASTEIGER

@<TRIPOS>ATOM
      1 C         139.4616  139.6870  167.3770 C.3     1  UNL1        0.1684
      2 N         140.8112  139.9513  166.7780 N.am    1  UNL1       -0.2925
      3 C         141.1334  141.3076  166.2242 C.2     1  UNL1        0.2375
      4 O         140.1060  142.3996  166.2694 O.2     1  UNL1       -0.2736
      5 H         141.4856  139.2346  166.7483 H       1  UNL1        0.1504
      6 C         142.4830  141.5720  165.6252 C.3     1  UNL1        0.1339
      7 C         143.2036  140.4814  164.8895 C.3     1  UNL1        0.0543
      8 C         144.5531  140.7457  164.2904 C.3     1  UNL1        0.1137
      9 O         145.2738  139.6551  163.5547 O.3     1  UNL1       -0.3844
     10 C         145.1820  142.1006  164.4271 C.3     1  UNL1        0.0464
     11 C         144.4614  143.1912  165.1628 C.3     1  UNL1        0.0714
     12 N         143.1118  142.9269  165.7618 N.3     1  UNL1       -0.2912
     13 H         146.1255  139.9900  163.2334 H       1  UNL1        0.2103
     14 H         142.4666  143.5949  165.3402 H       1  UNL1        0.1236
     15 C         139.2205  139.9597  168.8322 C.1     1  UNL1        0.0927
     16 N         138.9794  140.2325  170.2873 N.1     1  UNL1       -0.1942
     17 C         138.3533  139.1499  166.5209 C.3     1  UNL1        0.0616
     18 C         138.6787  139.3419  162.0368 C.ar    1  UNL1       -0.0000
     19 C         139.1039  138.1028  162.7673 C.ar    1  UNL1       -0.0003
     20 C         138.9954  138.0387  164.2620 C.ar    1  UNL1       -0.0042
     21 C         138.4617  139.2139  165.0262 C.ar    1  UNL1       -0.0194
     22 C         138.0365  140.4530  164.2958 C.ar    1  UNL1       -0.0042
     23 C         138.1449  140.5170  162.8011 C.ar    1  UNL1       -0.0003
     24 C         139.0041  139.5340  157.5527 C.ar    1  UNL1        0.0684
     25 C         139.7870  138.5089  158.3183 C.ar    1  UNL1        0.0103
     26 C         139.6786  138.4449  159.8130 C.ar    1  UNL1        0.0007
     27 C         138.7871  139.4059  160.5421 C.ar    1  UNL1        0.0000
     28 C         138.0042  140.4310  159.7765 C.ar    1  UNL1        0.0007
     29 C         138.1126  140.4950  158.2818 C.ar    1  UNL1        0.0103
     30 N         139.2210  139.6620  154.5633 N.1     1  UNL1       -0.1908
     31 C         139.1125  139.5980  156.0580 C.1     1  UNL1        0.1004
@<TRIPOS>BOND
     1    30    31    3
     2    31    24    1
     3    24    25   ar
     4    25    26   ar
     5    26    27   ar
     6    27    18    1
     7    18    19   ar
     8    19    20   ar
     9    20    21   ar
    10    21    17    1
    11     1    17    1
    12     1    15    1
    13    15    16    3
    14     1     2    1
    15     2     3   am
    16     3     4    2
    17     6     3    1
    18     6     7    1
    19     7     8    1
    20     8     9    1
    21     8    10    1
    22    10    11    1
    23    11    12    1
    24    21    22   ar
    25    22    23   ar
    26    27    28   ar
    27    28    29   ar
    28    29    24   ar
    29    23    18   ar
    30    12     6    1
    31     2     5    1
    32     9    13    1
    33    12    14    1
@<TRIPOS>MOLECULE
*****
 31 33 0 0 0
SMALL
GASTEIGER

@<TRIPOS>ATOM
      1 C         143.9543  142.2914  159.8892 C.3     1  UNL1        0.1684
      2 N         142.5368  141.8551  160.1144 N.am    1  UNL1       -0.2925
      3 C         142.2469  140.4597  160.5819 C.2     1  UNL1        0.2375
      4 O         143.3743  139.5004  160.8242 O.2     1  UNL1       -0.2736
      5 H         141.7969  142.4847  159.9553 H       1  UNL1        0.1504
      6 C         140.8295  140.0234  160.8071 C.3     1  UNL1        0.1339
      7 C         139.8111  141.0080  161.3004 C.3     1  UNL1        0.0543
      8 C         138.3937  140.5718  161.5256 C.3     1  UNL1        0.1137
      9 O         137.3754  141.5565  162.0189 O.3     1  UNL1       -0.3844
     10 C         137.9947  139.1510  161.2574 C.3     1  UNL1        0.0464
     11 C         139.0131  138.1664  160.7641 C.3     1  UNL1        0.0714
     12 N         140.4305  138.6026  160.5389 N.3     1  UNL1       -0.2912
     13 H         136.5165  141.1150  162.1102 H       1  UNL1        0.2103
     14 H         140.6435  138.4169  159.5588 H       1  UNL1        0.1236
     15 C         144.5459  142.2369  158.5119 C.1     1  UNL1        0.0927
     16 N         145.1376  142.1823  157.1346 N.1     1  UNL1       -0.1942
     17 C         144.7800  142.7821  161.0413 C.3     1  UNL1        0.0616
     18 C         143.1535  142.5597  165.2312 C.ar    1  UNL1       -0.0000
     19 C         144.0859  141.4964  164.7312 C.ar    1  UNL1       -0.0003
     20 C         144.6281  141.5706  163.3345 C.ar    1  UNL1       -0.0042
     21 C         144.2378  142.7080  162.4379 C.ar    1  UNL1       -0.0194
     22 C         143.3054  143.7712  162.9379 C.ar    1  UNL1       -0.0042
     23 C         142.7632  143.6971  164.3345 C.ar    1  UNL1       -0.0003
     24 C         141.5270  142.3372  169.4211 C.ar    1  UNL1        0.0684
     25 C         143.0089  142.3198  169.1899 C.ar    1  UNL1        0.0103
     26 C         143.5511  142.3940  167.7933 C.ar    1  UNL1        0.0007
     27 C         142.6113  142.4855  166.6278 C.ar    1  UNL1        0.0000
     28 C         141.1294  142.5029  166.8590 C.ar    1  UNL1        0.0007
     29 C         140.5872  142.4288  168.2556 C.ar    1  UNL1        0.0103
     30 N         140.4427  142.1890  172.2143 N.1     1  UNL1       -0.1908
     31 C         140.9848  142.2631  170.8177 C.1     1  UNL1        0.1004
@<TRIPOS>BOND
     1    30    31    3
     2    31    24    1
     3    24    25   ar
     4    25    26   ar
     5    26    27   ar
     6    27    18    1
     7    18    19   ar
     8    19    20   ar
     9    20    21   ar
    10    21    17    1
    11     1    17    1
    12     1    15    1
    13    15    16    3
    14     1     2    1
    15     2     3   am
    16     3     4    2
    17     6     3    1
    18     6     7    1
    19     7     8    1
    20     8     9    1
    21     8    10    1
    22    10    11    1
    23    11    12    1
    24    21    22   ar
    25    22    23   ar
    26    27    28   ar
    27    28    29   ar
    28    29    24   ar
    29    23    18   ar
    30    12     6    1
    31     2     5    1
    32     9    13    1
    33    12    14    1
