@<TRIPOS>MOLECULE
*****
 36 40 0 0 0
SMALL
GASTEIGER

@<TRIPOS>ATOM
      1 N         138.8803  139.8598  162.7356 N.3     1  UNL1       -0.2690
      2 C         139.9216  139.8377  161.6562 C.3     1  UNL1        0.0725
      3 C         139.9150  140.8887  160.5860 C.3     1  UNL1        0.0211
      4 C         138.8670  141.9618  160.5951 C.3     1  UNL1        0.0466
      5 C         137.8257  141.9840  161.6745 C.3     1  UNL1        0.0211
      6 C         137.8323  140.9330  162.7447 C.3     1  UNL1        0.0725
      7 C         138.8869  138.8088  163.8058 C.3     1  UNL1        0.0991
      8 C         140.4675  139.7820  167.9052 C.ar    1  UNL1       -0.0179
      9 C         138.9879  139.7384  167.6627 C.ar    1  UNL1       -0.0042
     10 C         138.4610  139.4140  166.2963 C.ar    1  UNL1       -0.0032
     11 C         139.4137  139.1332  165.1722 C.ar    1  UNL1       -0.0062
     12 C         140.8933  139.1769  165.4147 C.ar    1  UNL1       -0.0032
     13 C         141.4202  139.5013  166.7811 C.ar    1  UNL1       -0.0042
     14 C         142.3867  139.7950  168.8087 C.3     1  UNL1        0.0100
     15 C         140.9943  140.1064  169.2716 C.3     1  UNL1        0.0509
     16 C         139.6020  140.4179  169.7345 C.3     1  UNL1        0.0100
     17 C         141.5212  140.4308  170.6381 C.2     1  UNL1        0.0534
     18 O         140.6247  141.0736  171.6544 O.co2   1  UNL1       -0.5489
     19 O         142.9446  140.1124  170.9881 O.co2   1  UNL1       -0.5489
     20 C         138.8604  143.0128  159.5249 C.3     1  UNL1        0.2087
     21 O         139.8090  144.1719  159.6061 O.3     1  UNL1       -0.4453
     22 C         140.0569  144.8475  160.9221 C.2     1  UNL1        0.3458
     23 O         139.4831  146.2080  161.1866 O.2     1  UNL1       -0.2447
     24 C         140.8786  144.1627  161.9737 C.ar    1  UNL1        0.1283
     25 C         142.2539  143.5939  161.7864 C.ar    1  UNL1        0.2121
     26 N         142.6945  143.0062  163.0942 N.ar    1  UNL1       -0.2989
     27 C         141.5915  143.2117  164.0898 C.ar    1  UNL1        0.0626
     28 C         141.4641  142.8403  165.5375 C.ar    1  UNL1        0.0173
     29 C         140.2145  143.1837  166.2927 C.ar    1  UNL1        0.0015
     30 C         139.0922  143.8985  165.6002 C.ar    1  UNL1        0.0001
     31 C         139.2196  144.2699  164.1525 C.ar    1  UNL1        0.0018
     32 C         140.4692  143.9265  163.3973 C.ar    1  UNL1        0.0266
     33 C         144.0431  142.3598  163.2095 C.3     1  UNL1        0.1127
     34 C         144.9512  142.3011  162.0170 C.3     1  UNL1        0.0719
     35 C         144.5106  142.8889  160.7092 C.3     1  UNL1        0.2091
     36 O         143.1619  143.5353  160.5939 O.3     1  UNL1       -0.4611
@<TRIPOS>UNITY_ATOM_ATTR
18 1
charge -1
@<TRIPOS>BOND
     1    14    15    1
     2    15    16    1
     3    15    17    1
     4    17    18   ar
     5    17    19   ar
     6    15     8    1
     7     8     9   ar
     8     9    10   ar
     9    10    11   ar
    10    11     7    1
    11     7     1    1
    12     1     2    1
    13     2     3    1
    14     3     4    1
    15     4    20    1
    16    20    21    1
    17    21    22    1
    18    22    23    2
    19    22    24    1
    20    24    25   ar
    21    25    26   ar
    22    26    27   ar
    23    27    28   ar
    24    28    29   ar
    25    29    30   ar
    26    30    31   ar
    27    31    32   ar
    28    26    33    1
    29    33    34    1
    30    34    35    1
    31    35    36    1
    32     4     5    1
    33     5     6    1
    34    11    12   ar
    35    12    13   ar
    36    13     8   ar
    37     6     1    1
    38    32    24   ar
    39    36    25    1
    40    32    27   ar
@<TRIPOS>MOLECULE
*****
 36 40 0 0 0
SMALL
GASTEIGER

@<TRIPOS>ATOM
      1 N         142.8927  140.2782  162.8950 N.3     1  UNL1       -0.2690
      2 C         142.4217  139.0899  162.1102 C.3     1  UNL1        0.0725
      3 C         141.6197  139.2878  160.8583 C.3     1  UNL1        0.0211
      4 C         141.2885  140.6741  160.3910 C.3     1  UNL1        0.0466
      5 C         141.7594  141.8625  161.1758 C.3     1  UNL1        0.0211
      6 C         142.5615  141.6646  162.4278 C.3     1  UNL1        0.0725
      7 C         143.6948  140.0803  164.1470 C.3     1  UNL1        0.0991
      8 C         141.6596  140.1633  168.1597 C.ar    1  UNL1       -0.0179
      9 C         141.3256  141.1995  167.1278 C.ar    1  UNL1       -0.0042
     10 C         142.0040  141.1719  165.7903 C.ar    1  UNL1       -0.0032
     11 C         143.0164  140.1080  165.4845 C.ar    1  UNL1       -0.0062
     12 C         143.3503  139.0718  166.5165 C.ar    1  UNL1       -0.0032
     13 C         142.6719  139.0995  167.8540 C.ar    1  UNL1       -0.0042
     14 C         142.3127  140.0596  170.1753 C.3     1  UNL1        0.0100
     15 C         140.9812  140.1910  169.4972 C.3     1  UNL1        0.0509
     16 C         139.6497  140.3224  168.8191 C.3     1  UNL1        0.0100
     17 C         140.3028  140.2187  170.8347 C.2     1  UNL1        0.0534
     18 O         139.1237  139.3292  171.0962 O.co2   1  UNL1       -0.5489
     19 O         140.8036  141.1360  171.9108 O.co2   1  UNL1       -0.5489
     20 C         140.4864  140.8721  159.1390 C.3     1  UNL1        0.2087
     21 O         139.0579  141.3210  159.2266 O.3     1  UNL1       -0.4453
     22 C         138.1020  140.6079  160.1363 C.2     1  UNL1        0.3458
     23 O         137.0329  139.7278  159.5595 O.2     1  UNL1       -0.2447
     24 C         138.2151  140.7748  161.6227 C.ar    1  UNL1        0.1283
     25 C         138.1263  142.0702  162.3737 C.ar    1  UNL1        0.2121
     26 N         138.2931  141.7715  163.8342 N.ar    1  UNL1       -0.2989
     27 C         138.4851  140.2916  163.9858 C.ar    1  UNL1        0.0626
     28 C         138.6975  139.4254  165.1917 C.ar    1  UNL1        0.0173
     29 C         138.8617  137.9431  165.0309 C.ar    1  UNL1        0.0015
     30 C         138.8135  137.3271  163.6641 C.ar    1  UNL1        0.0001
     31 C         138.6010  138.1933  162.4581 C.ar    1  UNL1        0.0018
     32 C         138.4368  139.6756  162.6189 C.ar    1  UNL1        0.0266
     33 C         138.2488  142.8858  164.8374 C.3     1  UNL1        0.1127
     34 C         138.0375  144.2987  164.3802 C.3     1  UNL1        0.0719
     35 C         137.8707  144.5974  162.9197 C.3     1  UNL1        0.2091
     36 O         137.9150  143.4831  161.9165 O.3     1  UNL1       -0.4611
@<TRIPOS>UNITY_ATOM_ATTR
18 1
charge -1
@<TRIPOS>BOND
     1    14    15    1
     2    15    16    1
     3    15    17    1
     4    17    18   ar
     5    17    19   ar
     6    15     8    1
     7     8     9   ar
     8     9    10   ar
     9    10    11   ar
    10    11     7    1
    11     7     1    1
    12     1     2    1
    13     2     3    1
    14     3     4    1
    15     4    20    1
    16    20    21    1
    17    21    22    1
    18    22    23    2
    19    22    24    1
    20    24    25   ar
    21    25    26   ar
    22    26    27   ar
    23    27    28   ar
    24    28    29   ar
    25    29    30   ar
    26    30    31   ar
    27    31    32   ar
    28    26    33    1
    29    33    34    1
    30    34    35    1
    31    35    36    1
    32     4     5    1
    33     5     6    1
    34    11    12   ar
    35    12    13   ar
    36    13     8   ar
    37     6     1    1
    38    32    24   ar
    39    36    25    1
    40    32    27   ar
@<TRIPOS>MOLECULE
*****
 36 40 0 0 0
SMALL
GASTEIGER

@<TRIPOS>ATOM
      1 N         142.3334  138.6450  163.6382 N.3     1  UNL1       -0.2690
      2 C         143.7682  139.0227  163.4172 C.3     1  UNL1        0.0725
      3 C         144.1995  139.5910  162.0978 C.3     1  UNL1        0.0211
      4 C         143.1961  139.7816  160.9992 C.3     1  UNL1        0.0466
      5 C         141.7614  139.4039  161.2202 C.3     1  UNL1        0.0211
      6 C         141.3300  138.8356  162.5396 C.3     1  UNL1        0.0725
      7 C         141.9021  138.0766  164.9576 C.3     1  UNL1        0.0991
      8 C         140.9366  140.8282  168.3850 C.ar    1  UNL1       -0.0179
      9 C         142.3264  140.2869  168.2264 C.ar    1  UNL1       -0.0042
     10 C         142.6483  139.3697  167.0840 C.ar    1  UNL1       -0.0032
     11 C         141.5803  138.9938  166.1001 C.ar    1  UNL1       -0.0062
     12 C         140.1904  139.5351  166.2587 C.ar    1  UNL1       -0.0032
     13 C         139.8685  140.4523  167.4011 C.ar    1  UNL1       -0.0042
     14 C         141.7725  142.6213  169.1503 C.3     1  UNL1        0.0100
     15 C         140.6148  141.7453  169.5275 C.3     1  UNL1        0.0509
     16 C         139.4570  140.8694  169.9046 C.3     1  UNL1        0.0100
     17 C         140.2930  142.6625  170.6699 C.2     1  UNL1        0.0534
     18 O         139.8340  144.0647  170.3997 O.co2   1  UNL1       -0.5489
     19 O         140.4302  142.1774  172.0827 O.co2   1  UNL1       -0.5489
     20 C         143.6275  140.3500  159.6798 C.3     1  UNL1        0.2087
     21 O         144.0933  141.7731  159.5924 O.3     1  UNL1       -0.4453
     22 C         143.1605  142.8911  159.9524 C.2     1  UNL1        0.3458
     23 O         143.0095  144.0672  159.0336 O.2     1  UNL1       -0.2447
     24 C         142.3785  142.8332  161.2312 C.ar    1  UNL1        0.1283
     25 C         140.8857  142.7439  161.3485 C.ar    1  UNL1        0.2121
     26 N         140.5367  142.7099  162.8069 N.ar    1  UNL1       -0.2989
     27 C         141.8137  142.7782  163.5909 C.ar    1  UNL1        0.0626
     28 C         142.0870  142.7809  165.0658 C.ar    1  UNL1        0.0173
     29 C         143.4986  142.8597  165.5667 C.ar    1  UNL1        0.0015
     30 C         144.6369  142.9359  164.5929 C.ar    1  UNL1        0.0001
     31 C         144.3636  142.9333  163.1180 C.ar    1  UNL1        0.0018
     32 C         142.9520  142.8544  162.6170 C.ar    1  UNL1        0.0266
     33 C         139.1011  142.6212  163.2326 C.3     1  UNL1        0.1127
     34 C         138.0146  142.5664  162.1999 C.3     1  UNL1        0.0719
     35 C         138.3636  142.6004  160.7415 C.3     1  UNL1        0.2091
     36 O         139.7992  142.6891  160.3158 O.3     1  UNL1       -0.4611
@<TRIPOS>UNITY_ATOM_ATTR
18 1
charge -1
@<TRIPOS>BOND
     1    14    15    1
     2    15    16    1
     3    15    17    1
     4    17    18   ar
     5    17    19   ar
     6    15     8    1
     7     8     9   ar
     8     9    10   ar
     9    10    11   ar
    10    11     7    1
    11     7     1    1
    12     1     2    1
    13     2     3    1
    14     3     4    1
    15     4    20    1
    16    20    21    1
    17    21    22    1
    18    22    23    2
    19    22    24    1
    20    24    25   ar
    21    25    26   ar
    22    26    27   ar
    23    27    28   ar
    24    28    29   ar
    25    29    30   ar
    26    30    31   ar
    27    31    32   ar
    28    26    33    1
    29    33    34    1
    30    34    35    1
    31    35    36    1
    32     4     5    1
    33     5     6    1
    34    11    12   ar
    35    12    13   ar
    36    13     8   ar
    37     6     1    1
    38    32    24   ar
    39    36    25    1
    40    32    27   ar
@<TRIPOS>MOLECULE
*****
 36 40 0 0 0
SMALL
GASTEIGER

@<TRIPOS>ATOM
      1 N         138.8741  139.5229  163.4090 N.3     1  UNL1       -0.2690
      2 C         140.0249  139.3652  162.4599 C.3     1  UNL1        0.0725
      3 C         140.0286  140.1064  161.1559 C.3     1  UNL1        0.0211
      4 C         138.8815  141.0054  160.8009 C.3     1  UNL1        0.0466
      5 C         137.7307  141.1631  161.7500 C.3     1  UNL1        0.0211
      6 C         137.7270  140.4219  163.0540 C.3     1  UNL1        0.0725
      7 C         138.8704  138.7817  164.7131 C.3     1  UNL1        0.0991
      8 C         140.2810  140.8246  168.4664 C.ar    1  UNL1       -0.0179
      9 C         140.9965  141.0613  167.1694 C.ar    1  UNL1       -0.0042
     10 C         140.5264  140.3803  165.9183 C.ar    1  UNL1       -0.0032
     11 C         139.3407  139.4627  165.9641 C.ar    1  UNL1       -0.0062
     12 C         138.6252  139.2260  167.2611 C.ar    1  UNL1       -0.0032
     13 C         139.0953  139.9070  168.5122 C.ar    1  UNL1       -0.0042
     14 C         140.3598  142.8341  169.1414 C.3     1  UNL1        0.0100
     15 C         140.7512  141.5056  169.7174 C.3     1  UNL1        0.0509
     16 C         141.1427  140.1771  170.2934 C.3     1  UNL1        0.0100
     17 C         141.2215  142.1866  170.9685 C.2     1  UNL1        0.0534
     18 O         142.5422  142.8974  170.9844 O.co2   1  UNL1       -0.5489
     19 O         140.3708  142.1567  172.2037 O.co2   1  UNL1       -0.5489
     20 C         138.8852  141.7466  159.4968 C.3     1  UNL1        0.2087
     21 O         138.7874  143.2434  159.4846 O.3     1  UNL1       -0.4453
     22 C         139.9738  144.0757  159.8714 C.2     1  UNL1        0.3458
     23 O         140.5640  145.0429  158.8883 O.2     1  UNL1       -0.2447
     24 C         140.5701  143.9408  161.2412 C.ar    1  UNL1        0.1283
     25 C         142.0073  143.6445  161.5519 C.ar    1  UNL1        0.2121
     26 N         142.1592  143.5992  163.0434 N.ar    1  UNL1       -0.2989
     27 C         140.8159  143.8676  163.6546 C.ar    1  UNL1        0.0626
     28 C         140.3602  143.9470  165.0815 C.ar    1  UNL1        0.0173
     29 C         138.9223  144.2376  165.3944 C.ar    1  UNL1        0.0015
     30 C         137.9402  144.4487  164.2806 C.ar    1  UNL1        0.0001
     31 C         138.3959  144.3693  162.8537 C.ar    1  UNL1        0.0018
     32 C         139.8338  144.0788  162.5407 C.ar    1  UNL1        0.0266
     33 C         143.5012  143.3195  163.6524 C.3     1  UNL1        0.1127
     34 C         144.6912  143.0849  162.7699 C.3     1  UNL1        0.0719
     35 C         144.5392  143.1302  161.2783 C.3     1  UNL1        0.2091
     36 O         143.1973  143.4100  160.6693 O.3     1  UNL1       -0.4611
@<TRIPOS>UNITY_ATOM_ATTR
18 1
charge -1
@<TRIPOS>BOND
     1    14    15    1
     2    15    16    1
     3    15    17    1
     4    17    18   ar
     5    17    19   ar
     6    15     8    1
     7     8     9   ar
     8     9    10   ar
     9    10    11   ar
    10    11     7    1
    11     7     1    1
    12     1     2    1
    13     2     3    1
    14     3     4    1
    15     4    20    1
    16    20    21    1
    17    21    22    1
    18    22    23    2
    19    22    24    1
    20    24    25   ar
    21    25    26   ar
    22    26    27   ar
    23    27    28   ar
    24    28    29   ar
    25    29    30   ar
    26    30    31   ar
    27    31    32   ar
    28    26    33    1
    29    33    34    1
    30    34    35    1
    31    35    36    1
    32     4     5    1
    33     5     6    1
    34    11    12   ar
    35    12    13   ar
    36    13     8   ar
    37     6     1    1
    38    32    24   ar
    39    36    25    1
    40    32    27   ar
@<TRIPOS>MOLECULE
*****
 36 40 0 0 0
SMALL
GASTEIGER

@<TRIPOS>ATOM
      1 N         141.5702  139.2450  163.2791 N.3     1  UNL1       -0.2690
      2 C         142.9278  139.4060  162.6618 C.3     1  UNL1        0.0725
      3 C         143.0829  140.1673  161.3788 C.3     1  UNL1        0.0211
      4 C         141.8803  140.7679  160.7129 C.3     1  UNL1        0.0466
      5 C         140.5228  140.6069  161.3302 C.3     1  UNL1        0.0211
      6 C         140.3677  139.8455  162.6133 C.3     1  UNL1        0.0725
      7 C         141.4152  138.4837  164.5622 C.3     1  UNL1        0.0991
      8 C         140.9410  140.6994  168.4501 C.ar    1  UNL1       -0.0179
      9 C         142.2873  140.1778  168.0435 C.ar    1  UNL1       -0.0042
     10 C         142.4454  139.4392  166.7476 C.ar    1  UNL1       -0.0032
     11 C         141.2571  139.2222  165.8581 C.ar    1  UNL1       -0.0062
     12 C         139.9108  139.7439  166.2647 C.ar    1  UNL1       -0.0032
     13 C         139.7527  140.4824  167.5607 C.ar    1  UNL1       -0.0042
     14 C         142.1416  142.0472  169.5645 C.3     1  UNL1        0.0100
     15 C         140.7830  141.4380  169.7460 C.3     1  UNL1        0.0509
     16 C         139.4244  140.8287  169.9276 C.3     1  UNL1        0.0100
     17 C         140.6249  142.1765  171.0420 C.2     1  UNL1        0.0534
     18 O         141.7149  142.1269  172.0712 O.co2   1  UNL1       -0.5489
     19 O         139.3768  142.9648  171.3086 O.co2   1  UNL1       -0.5489
     20 C         142.0354  141.5292  159.4299 C.3     1  UNL1        0.2087
     21 O         142.6592  142.8933  159.4379 O.3     1  UNL1       -0.4453
     22 C         142.0393  143.9968  160.2428 C.2     1  UNL1        0.3458
     23 O         141.7052  145.3052  159.5894 O.2     1  UNL1       -0.2447
     24 C         141.7535  143.7922  161.7010 C.ar    1  UNL1        0.1283
     25 C         140.4200  143.9525  162.3690 C.ar    1  UNL1        0.2121
     26 N         140.5934  143.6507  163.8281 N.ar    1  UNL1       -0.2989
     27 C         142.0339  143.3040  164.0618 C.ar    1  UNL1        0.0626
     28 C         142.7853  142.9199  165.3019 C.ar    1  UNL1        0.0173
     29 C         144.2538  142.6232  165.2273 C.ar    1  UNL1        0.0015
     30 C         144.9708  142.7107  163.9126 C.ar    1  UNL1        0.0001
     31 C         144.2193  143.0948  162.6726 C.ar    1  UNL1        0.0018
     32 C         142.7509  143.3914  162.7472 C.ar    1  UNL1        0.0266
     33 C         139.4170  143.7307  164.7554 C.3     1  UNL1        0.1127
     34 C         138.0674  144.1124  164.2236 C.3     1  UNL1        0.0719
     35 C         137.8941  144.4142  162.7645 C.3     1  UNL1        0.2091
     36 O         139.0704  144.3342  161.8373 O.3     1  UNL1       -0.4611
@<TRIPOS>UNITY_ATOM_ATTR
18 1
charge -1
@<TRIPOS>BOND
     1    14    15    1
     2    15    16    1
     3    15    17    1
     4    17    18   ar
     5    17    19   ar
     6    15     8    1
     7     8     9   ar
     8     9    10   ar
     9    10    11   ar
    10    11     7    1
    11     7     1    1
    12     1     2    1
    13     2     3    1
    14     3     4    1
    15     4    20    1
    16    20    21    1
    17    21    22    1
    18    22    23    2
    19    22    24    1
    20    24    25   ar
    21    25    26   ar
    22    26    27   ar
    23    27    28   ar
    24    28    29   ar
    25    29    30   ar
    26    30    31   ar
    27    31    32   ar
    28    26    33    1
    29    33    34    1
    30    34    35    1
    31    35    36    1
    32     4     5    1
    33     5     6    1
    34    11    12   ar
    35    12    13   ar
    36    13     8   ar
    37     6     1    1
    38    32    24   ar
    39    36    25    1
    40    32    27   ar
@<TRIPOS>MOLECULE
*****
 36 40 0 0 0
SMALL
GASTEIGER

@<TRIPOS>ATOM
      1 N         139.1744  139.9911  162.8984 N.3     1  UNL1       -0.2690
      2 C         140.3852  139.1715  162.5637 C.3     1  UNL1        0.0725
      3 C         141.1210  139.4105  161.2786 C.3     1  UNL1        0.0211
      4 C         140.6459  140.4692  160.3281 C.3     1  UNL1        0.0466
      5 C         139.4351  141.2888  160.6628 C.3     1  UNL1        0.0211
      6 C         138.6993  141.0498  161.9479 C.3     1  UNL1        0.0725
      7 C         138.4387  139.7522  164.1835 C.3     1  UNL1        0.0991
      8 C         140.1077  141.3208  168.0570 C.ar    1  UNL1       -0.0179
      9 C         140.1990  142.1502  166.8105 C.ar    1  UNL1       -0.0042
     10 C         139.6426  141.6274  165.5193 C.ar    1  UNL1       -0.0032
     11 C         138.9950  140.2751  165.4746 C.ar    1  UNL1       -0.0062
     12 C         138.9038  139.4457  166.7212 C.ar    1  UNL1       -0.0032
     13 C         139.4601  139.9685  168.0123 C.ar    1  UNL1       -0.0042
     14 C         140.4667  143.2496  168.8638 C.3     1  UNL1        0.0100
     15 C         140.6641  141.8438  169.3481 C.3     1  UNL1        0.0509
     16 C         140.8614  140.4379  169.8325 C.3     1  UNL1        0.0100
     17 C         141.2204  142.3667  170.6392 C.2     1  UNL1        0.0534
     18 O         142.4387  143.2416  170.6312 O.co2   1  UNL1       -0.5489
     19 O         140.5583  142.0146  171.9384 O.co2   1  UNL1       -0.5489
     20 C         141.3816  140.7082  159.0429 C.3     1  UNL1        0.2087
     21 O         142.8664  140.9207  159.0571 O.3     1  UNL1       -0.4453
     22 C         143.4265  142.2824  159.3430 C.2     1  UNL1        0.3458
     23 O         144.1873  143.0187  158.2804 O.2     1  UNL1       -0.2447
     24 C         143.2260  142.9079  160.6916 C.ar    1  UNL1        0.1283
     25 C         144.0404  142.6331  161.9209 C.ar    1  UNL1        0.2121
     26 N         143.4935  143.4734  163.0366 N.ar    1  UNL1       -0.2989
     27 C         142.3411  144.2676  162.4968 C.ar    1  UNL1        0.0626
     28 C         141.4210  145.2638  163.1378 C.ar    1  UNL1        0.0173
     29 C         140.3356  145.9105  162.3294 C.ar    1  UNL1        0.0015
     30 C         140.1702  145.5610  160.8801 C.ar    1  UNL1        0.0001
     31 C         141.0903  144.5648  160.2391 C.ar    1  UNL1        0.0018
     32 C         142.1758  143.9181  161.0475 C.ar    1  UNL1        0.0266
     33 C         144.1155  143.4069  164.3999 C.3     1  UNL1        0.1127
     34 C         145.2844  142.5000  164.6475 C.3     1  UNL1        0.0719
     35 C         145.8313  141.6597  163.5318 C.3     1  UNL1        0.2091
     36 O         145.2093  141.7262  162.1685 O.3     1  UNL1       -0.4611
@<TRIPOS>UNITY_ATOM_ATTR
18 1
charge -1
@<TRIPOS>BOND
     1    14    15    1
     2    15    16    1
     3    15    17    1
     4    17    18   ar
     5    17    19   ar
     6    15     8    1
     7     8     9   ar
     8     9    10   ar
     9    10    11   ar
    10    11     7    1
    11     7     1    1
    12     1     2    1
    13     2     3    1
    14     3     4    1
    15     4    20    1
    16    20    21    1
    17    21    22    1
    18    22    23    2
    19    22    24    1
    20    24    25   ar
    21    25    26   ar
    22    26    27   ar
    23    27    28   ar
    24    28    29   ar
    25    29    30   ar
    26    30    31   ar
    27    31    32   ar
    28    26    33    1
    29    33    34    1
    30    34    35    1
    31    35    36    1
    32     4     5    1
    33     5     6    1
    34    11    12   ar
    35    12    13   ar
    36    13     8   ar
    37     6     1    1
    38    32    24   ar
    39    36    25    1
    40    32    27   ar
@<TRIPOS>MOLECULE
*****
 36 40 0 0 0
SMALL
GASTEIGER

@<TRIPOS>ATOM
      1 N         143.1320  140.8877  162.9712 N.3     1  UNL1       -0.2690
      2 C         142.7923  139.6540  162.1885 C.3     1  UNL1        0.0725
      3 C         141.9894  139.7640  160.9262 C.3     1  UNL1        0.0211
      4 C         141.5262  141.1076  160.4466 C.3     1  UNL1        0.0466
      5 C         141.8659  142.3413  161.2293 C.3     1  UNL1        0.0211
      6 C         142.6687  142.2313  162.4916 C.3     1  UNL1        0.0725
      7 C         143.9348  140.7777  164.2335 C.3     1  UNL1        0.0991
      8 C         141.8600  140.7761  168.2267 C.ar    1  UNL1       -0.0179
      9 C         142.4843  142.0368  167.7064 C.ar    1  UNL1       -0.0042
     10 C         143.1759  142.0374  166.3753 C.ar    1  UNL1       -0.0032
     11 C         143.2432  140.7772  165.5645 C.ar    1  UNL1       -0.0062
     12 C         142.6189  139.5165  166.0848 C.ar    1  UNL1       -0.0032
     13 C         141.9273  139.5158  167.4158 C.ar    1  UNL1       -0.0042
     14 C         141.8570  139.4917  169.9150 C.3     1  UNL1        0.0100
     15 C         141.1684  140.7755  169.5577 C.3     1  UNL1        0.0509
     16 C         140.4799  142.0594  169.2004 C.3     1  UNL1        0.0100
     17 C         140.4768  140.7750  170.8887 C.2     1  UNL1        0.0534
     18 O         139.5799  139.6341  171.2674 O.co2   1  UNL1       -0.5489
     19 O         140.6823  141.9156  171.8411 O.co2   1  UNL1       -0.5489
     20 C         140.7234  141.2176  159.1844 C.3     1  UNL1        0.2087
     21 O         139.2619  141.5484  159.2515 O.3     1  UNL1       -0.4453
     22 C         138.3447  140.7242  160.1054 C.2     1  UNL1        0.3458
     23 O         137.3500  139.8022  159.4644 O.2     1  UNL1       -0.2447
     24 C         138.4221  140.8217  161.6002 C.ar    1  UNL1        0.1283
     25 C         138.6476  139.6809  162.5477 C.ar    1  UNL1        0.2121
     26 N         138.6524  140.2313  163.9430 N.ar    1  UNL1       -0.2989
     27 C         138.4300  141.7123  163.8579 C.ar    1  UNL1        0.0626
     28 C         138.3387  142.7757  164.9118 C.ar    1  UNL1        0.0173
     29 C         138.1050  144.2040  164.5177 C.ar    1  UNL1        0.0015
     30 C         137.9626  144.5689  163.0698 C.ar    1  UNL1        0.0001
     31 C         138.0540  143.5055  162.0159 C.ar    1  UNL1        0.0018
     32 C         138.2876  142.0772  162.4100 C.ar    1  UNL1        0.0266
     33 C         138.8588  139.3129  165.1109 C.3     1  UNL1        0.1127
     34 C         139.0603  137.8440  164.8833 C.3     1  UNL1        0.0719
     35 C         139.0554  137.2935  163.4880 C.3     1  UNL1        0.2091
     36 O         138.8491  138.2120  162.3202 O.3     1  UNL1       -0.4611
@<TRIPOS>UNITY_ATOM_ATTR
18 1
charge -1
@<TRIPOS>BOND
     1    14    15    1
     2    15    16    1
     3    15    17    1
     4    17    18   ar
     5    17    19   ar
     6    15     8    1
     7     8     9   ar
     8     9    10   ar
     9    10    11   ar
    10    11     7    1
    11     7     1    1
    12     1     2    1
    13     2     3    1
    14     3     4    1
    15     4    20    1
    16    20    21    1
    17    21    22    1
    18    22    23    2
    19    22    24    1
    20    24    25   ar
    21    25    26   ar
    22    26    27   ar
    23    27    28   ar
    24    28    29   ar
    25    29    30   ar
    26    30    31   ar
    27    31    32   ar
    28    26    33    1
    29    33    34    1
    30    34    35    1
    31    35    36    1
    32     4     5    1
    33     5     6    1
    34    11    12   ar
    35    12    13   ar
    36    13     8   ar
    37     6     1    1
    38    32    24   ar
    39    36    25    1
    40    32    27   ar
@<TRIPOS>MOLECULE
*****
 36 40 0 0 0
SMALL
GASTEIGER

@<TRIPOS>ATOM
      1 N         141.0765  139.1939  163.2685 N.3     1  UNL1       -0.2690
      2 C         139.7773  139.7513  162.7674 C.3     1  UNL1        0.0725
      3 C         139.7333  140.4986  161.4675 C.3     1  UNL1        0.0211
      4 C         140.9887  140.6885  160.6687 C.3     1  UNL1        0.0466
      5 C         142.2879  140.1312  161.1699 C.3     1  UNL1        0.0211
      6 C         142.3319  139.3839  162.4698 C.3     1  UNL1        0.0725
      7 C         141.1205  138.4467  164.5684 C.3     1  UNL1        0.0991
      8 C         140.8477  140.6866  168.4617 C.ar    1  UNL1       -0.0179
      9 C         139.5966  140.2607  167.7522 C.ar    1  UNL1       -0.0042
     10 C         139.6875  139.5141  166.4545 C.ar    1  UNL1       -0.0032
     11 C         141.0295  139.1933  165.8661 C.ar    1  UNL1       -0.0062
     12 C         142.2806  139.6192  166.5757 C.ar    1  UNL1       -0.0032
     13 C         142.1897  140.3658  167.8734 C.ar    1  UNL1       -0.0042
     14 C         139.3039  141.0746  169.8640 C.3     1  UNL1        0.0100
     15 C         140.7567  141.4333  169.7595 C.3     1  UNL1        0.0509
     16 C         142.2094  141.7919  169.6550 C.3     1  UNL1        0.0100
     17 C         140.6657  142.1799  171.0573 C.2     1  UNL1        0.0534
     18 O         139.4093  142.9190  171.4108 O.co2   1  UNL1       -0.5489
     19 O         141.8312  142.1873  172.0015 O.co2   1  UNL1       -0.5489
     20 C         140.9447  141.4358  159.3689 C.3     1  UNL1        0.2087
     21 O         140.5999  142.8956  159.3543 O.3     1  UNL1       -0.4453
     22 C         141.3726  143.8573  160.2074 C.2     1  UNL1        0.3458
     23 O         142.1520  144.9681  159.5678 O.2     1  UNL1       -0.2447
     24 C         141.3660  143.7085  161.7000 C.ar    1  UNL1        0.1283
     25 C         142.5488  143.3680  162.5573 C.ar    1  UNL1        0.2121
     26 N         142.0892  143.3231  163.9844 N.ar    1  UNL1       -0.2989
     27 C         140.6224  143.6359  164.0091 C.ar    1  UNL1        0.0626
     28 C         139.6360  143.7346  165.1348 C.ar    1  UNL1        0.0173
     29 C         138.2026  144.0715  164.8486 C.ar    1  UNL1        0.0015
     30 C         137.7557  144.3097  163.4367 C.ar    1  UNL1        0.0001
     31 C         138.7420  144.2110  162.3110 C.ar    1  UNL1        0.0018
     32 C         140.1754  143.8741  162.5972 C.ar    1  UNL1        0.0266
     33 C         143.0658  143.0032  165.0771 C.3     1  UNL1        0.1127
     34 C         144.5019  142.7282  164.7426 C.3     1  UNL1        0.0719
     35 C         144.9615  142.7730  163.3155 C.3     1  UNL1        0.2091
     36 O         143.9849  143.0929  162.2228 O.3     1  UNL1       -0.4611
@<TRIPOS>UNITY_ATOM_ATTR
18 1
charge -1
@<TRIPOS>BOND
     1    14    15    1
     2    15    16    1
     3    15    17    1
     4    17    18   ar
     5    17    19   ar
     6    15     8    1
     7     8     9   ar
     8     9    10   ar
     9    10    11   ar
    10    11     7    1
    11     7     1    1
    12     1     2    1
    13     2     3    1
    14     3     4    1
    15     4    20    1
    16    20    21    1
    17    21    22    1
    18    22    23    2
    19    22    24    1
    20    24    25   ar
    21    25    26   ar
    22    26    27   ar
    23    27    28   ar
    24    28    29   ar
    25    29    30   ar
    26    30    31   ar
    27    31    32   ar
    28    26    33    1
    29    33    34    1
    30    34    35    1
    31    35    36    1
    32     4     5    1
    33     5     6    1
    34    11    12   ar
    35    12    13   ar
    36    13     8   ar
    37     6     1    1
    38    32    24   ar
    39    36    25    1
    40    32    27   ar
@<TRIPOS>MOLECULE
*****
 36 40 0 0 0
SMALL
GASTEIGER

@<TRIPOS>ATOM
      1 N         140.0439  137.8895  163.3927 N.3     1  UNL1       -0.2690
      2 C         141.5346  137.7416  163.3166 C.3     1  UNL1        0.0725
      3 C         142.2440  137.9559  162.0124 C.3     1  UNL1        0.0211
      4 C         141.4627  138.3182  160.7843 C.3     1  UNL1        0.0466
      5 C         139.9720  138.4661  160.8604 C.3     1  UNL1        0.0211
      6 C         139.2626  138.2518  162.1646 C.3     1  UNL1        0.0725
      7 C         139.3345  137.6752  164.6968 C.3     1  UNL1        0.0991
      8 C         139.8212  140.6499  168.0382 C.ar    1  UNL1       -0.0179
      9 C         138.6387  139.7272  168.0218 C.ar    1  UNL1       -0.0042
     10 C         138.4764  138.7356  166.9081 C.ar    1  UNL1       -0.0032
     11 C         139.4967  138.6667  165.8106 C.ar    1  UNL1       -0.0062
     12 C         140.6792  139.5895  165.8270 C.ar    1  UNL1       -0.0032
     13 C         140.8415  140.5810  166.9407 C.ar    1  UNL1       -0.0042
     14 C         140.7538  142.5450  168.2354 C.3     1  UNL1        0.0100
     15 C         139.9834  141.6414  169.1520 C.3     1  UNL1        0.0509
     16 C         139.2130  140.7379  170.0685 C.3     1  UNL1        0.0100
     17 C         140.1456  142.6330  170.2657 C.2     1  UNL1        0.0534
     18 O         140.0367  144.1021  169.9838 O.co2   1  UNL1       -0.5489
     19 O         140.4167  142.1552  171.6616 O.co2   1  UNL1       -0.5489
     20 C         142.1721  138.5325  159.4802 C.3     1  UNL1        0.2087
     21 O         142.8927  139.8224  159.2215 O.3     1  UNL1       -0.4453
     22 C         142.2297  141.1292  159.5415 C.2     1  UNL1        0.3458
     23 O         141.7069  141.9959  158.4343 O.2     1  UNL1       -0.2447
     24 C         142.0894  141.5695  160.9685 C.ar    1  UNL1        0.1283
     25 C         143.2057  141.7169  161.9596 C.ar    1  UNL1        0.2121
     26 N         142.6143  142.1782  163.2586 N.ar    1  UNL1       -0.2989
     27 C         141.1325  142.3160  163.0704 C.ar    1  UNL1        0.0626
     28 C         140.0368  142.7354  164.0049 C.ar    1  UNL1        0.0173
     29 C         138.6166  142.7786  163.5241 C.ar    1  UNL1        0.0015
     30 C         138.2922  142.4024  162.1087 C.ar    1  UNL1        0.0001
     31 C         139.3880  141.9830  161.1742 C.ar    1  UNL1        0.0018
     32 C         140.8081  141.9398  161.6550 C.ar    1  UNL1        0.0266
     33 C         143.5015  142.4133  164.4450 C.3     1  UNL1        0.1127
     34 C         144.9800  142.1869  164.3324 C.3     1  UNL1        0.0719
     35 C         145.5714  141.7256  163.0334 C.3     1  UNL1        0.2091
     36 O         144.6842  141.4906  161.8470 O.3     1  UNL1       -0.4611
@<TRIPOS>UNITY_ATOM_ATTR
18 1
charge -1
@<TRIPOS>BOND
     1    14    15    1
     2    15    16    1
     3    15    17    1
     4    17    18   ar
     5    17    19   ar
     6    15     8    1
     7     8     9   ar
     8     9    10   ar
     9    10    11   ar
    10    11     7    1
    11     7     1    1
    12     1     2    1
    13     2     3    1
    14     3     4    1
    15     4    20    1
    16    20    21    1
    17    21    22    1
    18    22    23    2
    19    22    24    1
    20    24    25   ar
    21    25    26   ar
    22    26    27   ar
    23    27    28   ar
    24    28    29   ar
    25    29    30   ar
    26    30    31   ar
    27    31    32   ar
    28    26    33    1
    29    33    34    1
    30    34    35    1
    31    35    36    1
    32     4     5    1
    33     5     6    1
    34    11    12   ar
    35    12    13   ar
    36    13     8   ar
    37     6     1    1
    38    32    24   ar
    39    36    25    1
    40    32    27   ar
