@<TRIPOS>MOLECULE
*****
 32 34 0 0 0
SMALL
GASTEIGER

@<TRIPOS>ATOM
      1 C         140.9827  140.2830  168.6656 C.ar    1  UNL1        0.0519
      2 C         140.3147  140.5220  169.9871 C.ar    1  UNL1        0.0853
      3 C         138.8763  140.1427  170.1799 C.ar    1  UNL1        0.1045
      4 N         138.1060  139.5243  169.0512 N.ar    1  UNL1       -0.2436
      5 C         138.7740  139.2853  167.7295 C.ar    1  UNL1        0.0825
      6 C         138.0037  138.6669  166.6008 C.ar    1  UNL1        0.0191
      7 C         138.6717  138.4279  165.2792 C.ar    1  UNL1        0.0016
      8 C         140.1101  138.8072  165.0864 C.ar    1  UNL1        0.0016
      9 C         140.8804  139.4256  166.2152 C.ar    1  UNL1        0.0028
     10 C         140.2124  139.6646  167.5367 C.ar    1  UNL1        0.0309
     11 C         140.7781  138.5681  163.7648 C.ar    1  UNL1        0.0192
     12 C         142.2258  138.9155  163.5825 C.ar    1  UNL1        0.0028
     13 C         142.8939  138.6764  162.2608 C.ar    1  UNL1        0.0172
     14 CA        142.1141  138.0900  161.1215 C.ar    1  UNL1        0.0885
     15 N         140.6662  137.7427  161.3039 N.ar    1  UNL1       -0.2457
     16 C         139.9983  137.9817  162.6255 C.ar    1  UNL1        0.0985
     17 C         142.7820  137.8510  159.8000 C.3     1  UNL1        0.1829
     18 O         143.7419  138.8642  159.2507 O.3     1  UNL1       -0.3760
     19 H         143.2650  139.6836  159.0456 H       1  UNL1        0.2110
     20 C         141.0850  141.1405  171.1160 C.2     1  UNL1        0.2455
     21 N         142.3857  140.5365  171.5558 N.am    1  UNL1       -0.3252
     22 O         140.5547  142.3628  171.8049 O.2     1  UNL1       -0.2703
     23 H         142.7338  139.7342  171.1036 H       1  UNL1        0.1453
     24 H         142.8913  140.9424  172.2967 H       1  UNL1        0.1453
     25 N         142.4211  140.6624  168.4728 N.pl3   1  UNL1       -0.3325
     26 H         143.1319  140.0059  168.6545 H       1  UNL1        0.1468
     27 C         142.7764  142.0420  168.0031 C.3     1  UNL1        0.0870
     28 C         142.5508  142.4282  166.5714 C.3     1  UNL1        0.0195
     29 C         140.7919  142.7650  164.6892 C.3     1  UNL1        0.0001
     30 C         141.1990  142.9018  166.1264 C.3     1  UNL1        0.0017
     31 C         143.6772  142.3406  165.5846 C.3     1  UNL1        0.0017
     32 C         144.6339  143.4862  165.4349 C.3     1  UNL1        0.0001
@<TRIPOS>BOND
     1    29    30    1
     2    30    28    1
     3    28    31    1
     4    31    32    1
     5    28    27    1
     6    27    25    1
     7    25     1    1
     8     1     2   ar
     9     2    20    1
    10    20    21   am
    11    20    22    2
    12     2     3   ar
    13     3     4   ar
    14     4     5   ar
    15     5     6   ar
    16     6     7   ar
    17     7     8   ar
    18     8    11    1
    19    11    12   ar
    20    12    13   ar
    21    13    14   ar
    22    14    17    1
    23    17    18    1
    24    14    15   ar
    25    15    16   ar
    26     8     9   ar
    27     9    10   ar
    28    10     1   ar
    29    10     5   ar
    30    16    11   ar
    31    25    26    1
    32    21    23    1
    33    21    24    1
    34    18    19    1
@<TRIPOS>MOLECULE
*****
 32 34 0 0 0
SMALL
GASTEIGER

@<TRIPOS>ATOM
      1 C         139.5479  140.8507  162.1158 C.ar    1  UNL1        0.0519
      2 C         139.0156  141.1977  160.7570 C.ar    1  UNL1        0.0853
      3 C         138.3988  142.5433  160.5143 C.ar    1  UNL1        0.1045
      4 N         138.3144  143.5419  161.6303 N.ar    1  UNL1       -0.2436
      5 C         138.8468  143.1950  162.9892 C.ar    1  UNL1        0.0825
      6 C         138.7623  144.1936  164.1052 C.ar    1  UNL1        0.0191
      7 C         139.2947  143.8466  165.4639 C.ar    1  UNL1        0.0016
      8 C         139.9114  142.5010  165.7066 C.ar    1  UNL1        0.0016
      9 C         139.9959  141.5024  164.5906 C.ar    1  UNL1        0.0028
     10 C         139.4635  141.8493  163.2319 C.ar    1  UNL1        0.0309
     11 C         140.4438  142.1540  167.0654 C.ar    1  UNL1        0.0192
     12 C         141.1080  140.8289  167.2948 C.ar    1  UNL1        0.0028
     13 C         141.6404  140.4819  168.6536 C.ar    1  UNL1        0.0172
     14 CA        141.5084  141.4602  169.7830 C.ar    1  UNL1        0.0885
     15 N         140.8441  142.7854  169.5536 N.ar    1  UNL1       -0.2457
     16 C         140.3118  143.1323  168.1948 C.ar    1  UNL1        0.0985
     17 C         142.0407  141.1133  171.1418 C.3     1  UNL1        0.1829
     18 O         142.1561  142.1746  172.1954 O.3     1  UNL1       -0.3760
     19 H         142.8184  142.8292  171.9238 H       1  UNL1        0.2110
     20 C         139.1000  140.1990  159.6409 C.2     1  UNL1        0.2455
     21 N         137.9382  140.0143  158.7103 N.am    1  UNL1       -0.3252
     22 O         140.3462  139.3851  159.4555 O.2     1  UNL1       -0.2703
     23 H         137.1202  140.5486  158.8321 H       1  UNL1        0.1453
     24 H         137.9936  139.3589  157.9778 H       1  UNL1        0.1453
     25 N         140.1647  139.5051  162.3585 N.pl3   1  UNL1       -0.3325
     26 H         141.1211  139.3615  162.1744 H       1  UNL1        0.1468
     27 C         139.3242  138.3781  162.8817 C.3     1  UNL1        0.0870
     28 C         139.6808  137.7165  164.1798 C.3     1  UNL1        0.0195
     29 C         138.2940  138.7365  166.1256 C.3     1  UNL1        0.0001
     30 C         138.6453  137.5669  165.2546 C.3     1  UNL1        0.0017
     31 C         141.0730  137.2045  164.4030 C.3     1  UNL1        0.0017
     32 C         142.0877  138.0672  165.0929 C.3     1  UNL1        0.0001
@<TRIPOS>BOND
     1    29    30    1
     2    30    28    1
     3    28    31    1
     4    31    32    1
     5    28    27    1
     6    27    25    1
     7    25     1    1
     8     1     2   ar
     9     2    20    1
    10    20    21   am
    11    20    22    2
    12     2     3   ar
    13     3     4   ar
    14     4     5   ar
    15     5     6   ar
    16     6     7   ar
    17     7     8   ar
    18     8    11    1
    19    11    12   ar
    20    12    13   ar
    21    13    14   ar
    22    14    17    1
    23    17    18    1
    24    14    15   ar
    25    15    16   ar
    26     8     9   ar
    27     9    10   ar
    28    10     1   ar
    29    10     5   ar
    30    16    11   ar
    31    25    26    1
    32    21    23    1
    33    21    24    1
    34    18    19    1
@<TRIPOS>MOLECULE
*****
 32 34 0 0 0
SMALL
GASTEIGER

@<TRIPOS>ATOM
      1 C         140.1650  144.0781  162.8896 C.ar    1  UNL1        0.0519
      2 C         139.8876  144.2613  161.4269 C.ar    1  UNL1        0.0853
      3 C         139.2317  143.1624  160.6445 C.ar    1  UNL1        0.1045
      4 N         138.8532  141.8803  161.3247 N.ar    1  UNL1       -0.2436
      5 C         139.1306  141.6969  162.7874 C.ar    1  UNL1        0.0825
      6 C         138.7522  140.4148  163.4676 C.ar    1  UNL1        0.0191
      7 C         139.0296  140.2315  164.9303 C.ar    1  UNL1        0.0016
      8 C         139.6855  141.3304  165.7127 C.ar    1  UNL1        0.0016
      9 C         140.0640  142.6126  165.0325 C.ar    1  UNL1        0.0028
     10 C         139.7865  142.7958  163.5699 C.ar    1  UNL1        0.0309
     11 C         139.9629  141.1471  167.1755 C.ar    1  UNL1        0.0192
     12 C         140.7945  142.1542  167.9131 C.ar    1  UNL1        0.0028
     13 C         141.0719  141.9709  169.3758 C.ar    1  UNL1        0.0172
     14 CA        140.5178  140.7804  170.1008 C.ar    1  UNL1        0.0885
     15 N         139.6862  139.7732  169.3631 N.ar    1  UNL1       -0.2457
     16 C         139.4088  139.9566  167.9005 C.ar    1  UNL1        0.0985
     17 C         140.7951  140.5970  171.5635 C.3     1  UNL1        0.1829
     18 O         142.1942  140.7397  172.0851 O.3     1  UNL1       -0.3760
     19 H         142.7477  140.0294  171.7246 H       1  UNL1        0.2110
     20 C         140.2661  145.5436  160.7466 C.2     1  UNL1        0.2455
     21 N         141.4370  145.5783  159.8098 N.am    1  UNL1       -0.3252
     22 O         139.4736  146.7910  161.0032 O.2     1  UNL1       -0.2703
     23 H         141.9571  144.7595  159.6414 H       1  UNL1        0.1453
     24 H         141.6854  146.4198  159.3633 H       1  UNL1        0.1453
     25 N         140.8209  145.1770  163.6720 N.pl3   1  UNL1       -0.3325
     26 H         140.2866  145.7303  164.2864 H       1  UNL1        0.1468
     27 C         142.2910  145.4327  163.5183 C.3     1  UNL1        0.0870
     28 C         143.2622  144.2919  163.5900 C.3     1  UNL1        0.0195
     29 C         143.2851  142.9001  161.3963 C.3     1  UNL1        0.0001
     30 C         143.9713  143.8316  162.3509 C.3     1  UNL1        0.0017
     31 C         143.5244  143.6113  164.9008 C.3     1  UNL1        0.0017
     32 C         143.5714  142.1137  164.9720 C.3     1  UNL1        0.0001
@<TRIPOS>BOND
     1    29    30    1
     2    30    28    1
     3    28    31    1
     4    31    32    1
     5    28    27    1
     6    27    25    1
     7    25     1    1
     8     1     2   ar
     9     2    20    1
    10    20    21   am
    11    20    22    2
    12     2     3   ar
    13     3     4   ar
    14     4     5   ar
    15     5     6   ar
    16     6     7   ar
    17     7     8   ar
    18     8    11    1
    19    11    12   ar
    20    12    13   ar
    21    13    14   ar
    22    14    17    1
    23    17    18    1
    24    14    15   ar
    25    15    16   ar
    26     8     9   ar
    27     9    10   ar
    28    10     1   ar
    29    10     5   ar
    30    16    11   ar
    31    25    26    1
    32    21    23    1
    33    21    24    1
    34    18    19    1
@<TRIPOS>MOLECULE
*****
 32 34 0 0 0
SMALL
GASTEIGER

@<TRIPOS>ATOM
      1 C         141.1210  141.6575  168.0834 C.ar    1  UNL1        0.0519
      2 C         141.4234  141.6209  169.5521 C.ar    1  UNL1        0.0853
      3 C         140.6347  140.7226  170.4581 C.ar    1  UNL1        0.1045
      4 N         139.5435  139.8609  169.8955 N.ar    1  UNL1       -0.2436
      5 C         139.2411  139.8973  168.4267 C.ar    1  UNL1        0.0825
      6 C         138.1499  139.0356  167.8640 C.ar    1  UNL1        0.0191
      7 C         137.8475  139.0721  166.3953 C.ar    1  UNL1        0.0016
      8 C         138.6363  139.9704  165.4892 C.ar    1  UNL1        0.0016
      9 C         139.7275  140.8322  166.0519 C.ar    1  UNL1        0.0028
     10 C         140.0298  140.7956  167.5206 C.ar    1  UNL1        0.0309
     11 C         138.3339  140.0069  164.0204 C.ar    1  UNL1        0.0192
     12 C         138.6195  138.8077  163.1659 C.ar    1  UNL1        0.0028
     13 C         138.3170  138.8442  161.6971 C.ar    1  UNL1        0.0172
     14 CA        137.7290  140.0799  161.0829 C.ar    1  UNL1        0.0885
     15 N         137.4434  141.2792  161.9376 N.ar    1  UNL1       -0.2457
     16 C         137.7458  141.2426  163.4063 C.ar    1  UNL1        0.0985
     17 C         137.4265  140.1165  159.6142 C.3     1  UNL1        0.1829
     18 O         138.4476  139.6359  158.6261 O.3     1  UNL1       -0.3760
     19 H         139.2196  140.2228  158.6475 H       1  UNL1        0.2110
     20 C         142.5146  142.4827  170.1149 C.2     1  UNL1        0.2455
     21 N         143.9254  141.9749  170.1561 N.am    1  UNL1       -0.3252
     22 O         142.1950  143.8523  170.6364 O.2     1  UNL1       -0.2703
     23 H         144.1352  141.0759  169.8138 H       1  UNL1        0.1453
     24 H         144.6416  142.5405  170.5255 H       1  UNL1        0.1453
     25 N         141.9098  142.5558  167.1774 N.pl3   1  UNL1       -0.3325
     26 H         141.5989  143.4731  167.0013 H       1  UNL1        0.1468
     27 C         143.1724  142.0563  166.5396 C.3     1  UNL1        0.0870
     28 C         143.1059  141.2430  165.2810 C.3     1  UNL1        0.0195
     29 C         142.8094  138.7551  165.9683 C.3     1  UNL1        0.0001
     30 C         143.5991  139.8264  165.2765 C.3     1  UNL1        0.0017
     31 C         142.5463  141.8464  164.0268 C.3     1  UNL1        0.0017
     32 C         141.8763  140.9724  163.0083 C.3     1  UNL1        0.0001
@<TRIPOS>BOND
     1    29    30    1
     2    30    28    1
     3    28    31    1
     4    31    32    1
     5    28    27    1
     6    27    25    1
     7    25     1    1
     8     1     2   ar
     9     2    20    1
    10    20    21   am
    11    20    22    2
    12     2     3   ar
    13     3     4   ar
    14     4     5   ar
    15     5     6   ar
    16     6     7   ar
    17     7     8   ar
    18     8    11    1
    19    11    12   ar
    20    12    13   ar
    21    13    14   ar
    22    14    17    1
    23    17    18    1
    24    14    15   ar
    25    15    16   ar
    26     8     9   ar
    27     9    10   ar
    28    10     1   ar
    29    10     5   ar
    30    16    11   ar
    31    25    26    1
    32    21    23    1
    33    21    24    1
    34    18    19    1
@<TRIPOS>MOLECULE
*****
 32 34 0 0 0
SMALL
GASTEIGER

@<TRIPOS>ATOM
      1 C         140.5582  141.6500  168.0495 C.ar    1  UNL1        0.0519
      2 C         140.3611  141.7803  169.5308 C.ar    1  UNL1        0.0853
      3 C         139.3927  140.8812  170.2405 C.ar    1  UNL1        0.1045
      4 N         138.6212  139.8518  169.4690 N.ar    1  UNL1       -0.2436
      5 C         138.8183  139.7215  167.9877 C.ar    1  UNL1        0.0825
      6 C         138.0468  138.6922  167.2162 C.ar    1  UNL1        0.0191
      7 C         138.2439  138.5619  165.7349 C.ar    1  UNL1        0.0016
      8 C         139.2123  139.4609  165.0252 C.ar    1  UNL1        0.0016
      9 C         139.9838  140.4903  165.7967 C.ar    1  UNL1        0.0028
     10 C         139.7867  140.6206  167.2779 C.ar    1  UNL1        0.0309
     11 C         139.4094  139.3306  163.5439 C.ar    1  UNL1        0.0192
     12 C         140.2707  140.3168  162.8122 C.ar    1  UNL1        0.0028
     13 C         140.4678  140.1865  161.3308 C.ar    1  UNL1        0.0172
     14 CA        139.8034  139.0699  160.5813 C.ar    1  UNL1        0.0885
     15 N         138.9419  138.0837  161.3130 N.ar    1  UNL1       -0.2457
     16 C         138.7450  138.2141  162.7943 C.ar    1  UNL1        0.0985
     17 C         140.0003  138.9396  159.1000 C.3     1  UNL1        0.1829
     18 O         138.8750  139.2629  158.1625 O.3     1  UNL1       -0.3760
     19 H         138.1562  138.6237  158.2875 H       1  UNL1        0.2110
     20 C         141.1326  142.8097  170.3024 C.2     1  UNL1        0.2455
     21 N         142.1796  142.3800  171.2869 N.am    1  UNL1       -0.3252
     22 O         140.8571  144.2687  170.0895 O.2     1  UNL1       -0.2703
     23 H         142.3604  141.4224  171.4266 H       1  UNL1        0.1453
     24 H         142.6859  143.0556  171.7933 H       1  UNL1        0.1453
     25 N         141.5267  142.5491  167.3398 N.pl3   1  UNL1       -0.3325
     26 H         141.2319  143.4296  167.0126 H       1  UNL1        0.1468
     27 C         142.9443  142.1065  167.1285 C.3     1  UNL1        0.0870
     28 C         143.5700  142.2175  165.7698 C.3     1  UNL1        0.0195
     29 C         143.9732  144.1297  164.0579 C.3     1  UNL1        0.0001
     30 C         144.2818  143.4766  165.3725 C.3     1  UNL1        0.0017
     31 C         143.4839  141.0693  164.8084 C.3     1  UNL1        0.0017
     32 C         143.4719  139.6601  165.3223 C.3     1  UNL1        0.0001
@<TRIPOS>BOND
     1    29    30    1
     2    30    28    1
     3    28    31    1
     4    31    32    1
     5    28    27    1
     6    27    25    1
     7    25     1    1
     8     1     2   ar
     9     2    20    1
    10    20    21   am
    11    20    22    2
    12     2     3   ar
    13     3     4   ar
    14     4     5   ar
    15     5     6   ar
    16     6     7   ar
    17     7     8   ar
    18     8    11    1
    19    11    12   ar
    20    12    13   ar
    21    13    14   ar
    22    14    17    1
    23    17    18    1
    24    14    15   ar
    25    15    16   ar
    26     8     9   ar
    27     9    10   ar
    28    10     1   ar
    29    10     5   ar
    30    16    11   ar
    31    25    26    1
    32    21    23    1
    33    21    24    1
    34    18    19    1
@<TRIPOS>MOLECULE
*****
 32 34 0 0 0
SMALL
GASTEIGER

@<TRIPOS>ATOM
      1 C         140.8508  140.4414  167.3293 C.ar    1  UNL1        0.0519
      2 C         140.8177  140.2461  168.8161 C.ar    1  UNL1        0.0853
      3 C         141.8840  139.4343  169.4899 C.ar    1  UNL1        0.1045
      4 N         142.9834  138.8179  168.6768 N.ar    1  UNL1       -0.2436
      5 C         143.0166  139.0132  167.1899 C.ar    1  UNL1        0.0825
      6 C         144.1161  138.3967  166.3769 C.ar    1  UNL1        0.0191
      7 C         144.1492  138.5921  164.8901 C.ar    1  UNL1        0.0016
      8 C         143.0829  139.4039  164.2163 C.ar    1  UNL1        0.0016
      9 C         141.9835  140.0203  165.0294 C.ar    1  UNL1        0.0028
     10 C         141.9503  139.8250  166.5162 C.ar    1  UNL1        0.0309
     11 C         143.1161  139.5992  162.7294 C.ar    1  UNL1        0.0192
     12 C         142.1997  140.5954  162.0832 C.ar    1  UNL1        0.0028
     13 C         142.2329  140.7907  160.5963 C.ar    1  UNL1        0.0172
     14 CA        143.1825  139.9898  159.7556 C.ar    1  UNL1        0.0885
     15 N         144.0990  138.9935  160.4019 N.ar    1  UNL1       -0.2457
     16 C         144.0658  138.7983  161.8888 C.ar    1  UNL1        0.0985
     17 C         143.2157  140.1851  158.2688 C.3     1  UNL1        0.1829
     18 O         144.4299  139.7808  157.4863 O.3     1  UNL1       -0.3760
     19 H         145.1797  140.3412  157.7404 H       1  UNL1        0.2110
     20 C         139.7182  140.8626  169.6293 C.2     1  UNL1        0.2455
     21 N         138.6914  139.9889  170.2869 N.am    1  UNL1       -0.3252
     22 O         139.6454  142.3527  169.7848 O.2     1  UNL1       -0.2703
     23 H         138.7392  139.0108  170.1848 H       1  UNL1        0.1453
     24 H         137.9698  140.3934  170.8206 H       1  UNL1        0.1453
     25 N         139.7845  141.2532  166.6556 N.pl3   1  UNL1       -0.3325
     26 H         139.7374  142.2252  166.8052 H       1  UNL1        0.1468
     27 C         138.7899  140.5842  165.7538 C.3     1  UNL1        0.0870
     28 C         138.4537  139.1358  165.9517 C.3     1  UNL1        0.0195
     29 C         137.1447  137.3029  167.2467 C.3     1  UNL1        0.0001
     30 C         137.6669  138.7060  167.1543 C.3     1  UNL1        0.0017
     31 C         138.9042  138.1172  164.9469 C.3     1  UNL1        0.0017
     32 C         138.9501  138.4703  163.4898 C.3     1  UNL1        0.0001
@<TRIPOS>BOND
     1    29    30    1
     2    30    28    1
     3    28    31    1
     4    31    32    1
     5    28    27    1
     6    27    25    1
     7    25     1    1
     8     1     2   ar
     9     2    20    1
    10    20    21   am
    11    20    22    2
    12     2     3   ar
    13     3     4   ar
    14     4     5   ar
    15     5     6   ar
    16     6     7   ar
    17     7     8   ar
    18     8    11    1
    19    11    12   ar
    20    12    13   ar
    21    13    14   ar
    22    14    17    1
    23    17    18    1
    24    14    15   ar
    25    15    16   ar
    26     8     9   ar
    27     9    10   ar
    28    10     1   ar
    29    10     5   ar
    30    16    11   ar
    31    25    26    1
    32    21    23    1
    33    21    24    1
    34    18    19    1
@<TRIPOS>MOLECULE
*****
 32 34 0 0 0
SMALL
GASTEIGER

@<TRIPOS>ATOM
      1 C         140.1926  141.4024  166.6204 C.ar    1  UNL1        0.0519
      2 C         140.4011  140.8499  167.9993 C.ar    1  UNL1        0.0853
      3 C         141.7417  140.9715  168.6612 C.ar    1  UNL1        0.1045
      4 N         142.8737  141.6456  167.9442 N.ar    1  UNL1       -0.2436
      5 C         142.6653  142.1981  166.5653 C.ar    1  UNL1        0.0825
      6 C         143.7973  142.8722  165.8484 C.ar    1  UNL1        0.0191
      7 C         143.5888  143.4247  164.4695 C.ar    1  UNL1        0.0016
      8 C         142.2482  143.3031  163.8076 C.ar    1  UNL1        0.0016
      9 C         141.1162  142.6290  164.5246 C.ar    1  UNL1        0.0028
     10 C         141.3247  142.0765  165.9034 C.ar    1  UNL1        0.0309
     11 C         142.0398  143.8556  162.4287 C.ar    1  UNL1        0.0192
     12 C         140.9107  144.8071  162.1648 C.ar    1  UNL1        0.0028
     13 C         140.7022  145.3597  160.7859 C.ar    1  UNL1        0.0172
     14 CA        141.6229  144.9606  159.6709 C.ar    1  UNL1        0.0885
     15 N         142.7520  144.0089  159.9349 N.ar    1  UNL1       -0.2457
     16 C         142.9604  143.4565  161.3137 C.ar    1  UNL1        0.0985
     17 C         141.4144  145.5130  158.2921 C.3     1  UNL1        0.1829
     18 O         142.4948  146.3212  157.6368 O.3     1  UNL1       -0.3760
     19 H         142.6211  147.1492  158.1260 H       1  UNL1        0.2110
     20 C         139.2691  140.1758  168.7163 C.2     1  UNL1        0.2455
     21 N         138.9204  140.5827  170.1173 N.am    1  UNL1       -0.3252
     22 O         138.4857  139.0949  168.0322 O.2     1  UNL1       -0.2703
     23 H         139.4346  141.2921  170.5663 H       1  UNL1        0.1453
     24 H         138.1774  140.1402  170.5879 H       1  UNL1        0.1453
     25 N         138.8521  141.2808  165.9585 N.pl3   1  UNL1       -0.3325
     26 H         138.1474  141.9414  166.1489 H       1  UNL1        0.1468
     27 C         138.5852  140.1527  165.0065 C.3     1  UNL1        0.0870
     28 C         138.2210  140.4445  163.5810 C.3     1  UNL1        0.0195
     29 C         137.8969  142.6759  162.2904 C.3     1  UNL1        0.0001
     30 C         137.3840  141.6448  163.2514 C.3     1  UNL1        0.0017
     31 C         138.6939  139.5360  162.4850 C.3     1  UNL1        0.0017
     32 C         137.6976  138.8334  161.6111 C.3     1  UNL1        0.0001
@<TRIPOS>BOND
     1    29    30    1
     2    30    28    1
     3    28    31    1
     4    31    32    1
     5    28    27    1
     6    27    25    1
     7    25     1    1
     8     1     2   ar
     9     2    20    1
    10    20    21   am
    11    20    22    2
    12     2     3   ar
    13     3     4   ar
    14     4     5   ar
    15     5     6   ar
    16     6     7   ar
    17     7     8   ar
    18     8    11    1
    19    11    12   ar
    20    12    13   ar
    21    13    14   ar
    22    14    17    1
    23    17    18    1
    24    14    15   ar
    25    15    16   ar
    26     8     9   ar
    27     9    10   ar
    28    10     1   ar
    29    10     5   ar
    30    16    11   ar
    31    25    26    1
    32    21    23    1
    33    21    24    1
    34    18    19    1
@<TRIPOS>MOLECULE
*****
 32 34 0 0 0
SMALL
GASTEIGER

@<TRIPOS>ATOM
      1 C         141.3839  143.0747  161.7643 C.ar    1  UNL1        0.0519
      2 C         141.0212  143.9233  160.5819 C.ar    1  UNL1        0.0853
      3 C         140.0122  145.0234  160.7296 C.ar    1  UNL1        0.1045
      4 N         139.3660  145.2748  162.0596 N.ar    1  UNL1       -0.2436
      5 C         139.7287  144.4261  163.2421 C.ar    1  UNL1        0.0825
      6 C         139.0824  144.6775  164.5722 C.ar    1  UNL1        0.0191
      7 C         139.4452  143.8288  165.7546 C.ar    1  UNL1        0.0016
      8 C         140.4542  142.7288  165.6069 C.ar    1  UNL1        0.0016
      9 C         141.1004  142.4774  164.2769 C.ar    1  UNL1        0.0028
     10 C         140.7377  143.3260  163.0945 C.ar    1  UNL1        0.0309
     11 C         140.8169  141.8801  166.7894 C.ar    1  UNL1        0.0192
     12 C         142.1441  142.0619  167.4642 C.ar    1  UNL1        0.0028
     13 C         142.5069  141.2132  168.6467 C.ar    1  UNL1        0.0172
     14 CA        141.5423  140.1827  169.1544 C.ar    1  UNL1        0.0885
     15 N         140.2150  140.0010  168.4796 N.ar    1  UNL1       -0.2457
     16 C         139.8523  140.8496  167.2971 C.ar    1  UNL1        0.0985
     17 C         141.9049  139.3341  170.3368 C.3     1  UNL1        0.1829
     18 O         142.9403  138.2577  170.1980 O.3     1  UNL1       -0.3760
     19 H         142.6126  137.5692  169.5984 H       1  UNL1        0.2110
     20 C         141.6675  143.6720  159.2517 C.2     1  UNL1        0.2455
     21 N         140.8294  143.2680  158.0751 N.am    1  UNL1       -0.3252
     22 O         143.1517  143.8246  159.0983 O.2     1  UNL1       -0.2703
     23 H         139.8552  143.1679  158.1759 H       1  UNL1        0.1453
     24 H         141.2535  143.1030  157.2021 H       1  UNL1        0.1453
     25 N         142.3929  141.9746  161.6166 N.pl3   1  UNL1       -0.3325
     26 H         142.1167  141.0970  161.2662 H       1  UNL1        0.1468
     27 C         143.8229  142.2117  162.0029 C.3     1  UNL1        0.0870
     28 C         144.3981  141.5261  163.2067 C.3     1  UNL1        0.0195
     29 C         144.5890  143.3266  165.0699 C.3     1  UNL1        0.0001
     30 C         145.2315  142.3007  164.1841 C.3     1  UNL1        0.0017
     31 C         144.1399  140.0659  163.4331 C.3     1  UNL1        0.0017
     32 C         143.3963  139.6165  164.6558 C.3     1  UNL1        0.0001
@<TRIPOS>BOND
     1    29    30    1
     2    30    28    1
     3    28    31    1
     4    31    32    1
     5    28    27    1
     6    27    25    1
     7    25     1    1
     8     1     2   ar
     9     2    20    1
    10    20    21   am
    11    20    22    2
    12     2     3   ar
    13     3     4   ar
    14     4     5   ar
    15     5     6   ar
    16     6     7   ar
    17     7     8   ar
    18     8    11    1
    19    11    12   ar
    20    12    13   ar
    21    13    14   ar
    22    14    17    1
    23    17    18    1
    24    14    15   ar
    25    15    16   ar
    26     8     9   ar
    27     9    10   ar
    28    10     1   ar
    29    10     5   ar
    30    16    11   ar
    31    25    26    1
    32    21    23    1
    33    21    24    1
    34    18    19    1
@<TRIPOS>MOLECULE
*****
 32 34 0 0 0
SMALL
GASTEIGER

@<TRIPOS>ATOM
      1 C         140.2682  140.7384  161.8457 C.ar    1  UNL1        0.0519
      2 C         139.9376  140.2740  160.4582 C.ar    1  UNL1        0.0853
      3 C         139.2824  138.9409  160.2497 C.ar    1  UNL1        0.1045
      4 N         138.9577  138.0722  161.4286 N.ar    1  UNL1       -0.2436
      5 C         139.2882  138.5366  162.8161 C.ar    1  UNL1        0.0825
      6 C         138.9635  137.6679  163.9950 C.ar    1  UNL1        0.0191
      7 C         139.2940  138.1322  165.3825 C.ar    1  UNL1        0.0016
      8 C         139.9493  139.4653  165.5910 C.ar    1  UNL1        0.0016
      9 C         140.2740  140.3340  164.4121 C.ar    1  UNL1        0.0028
     10 C         139.9435  139.8697  163.0247 C.ar    1  UNL1        0.0309
     11 C         140.2799  139.9297  166.9785 C.ar    1  UNL1        0.0192
     12 C         141.6573  140.4337  167.2925 C.ar    1  UNL1        0.0028
     13 C         141.9878  140.8980  168.6801 C.ar    1  UNL1        0.0172
     14 CA        140.9409  140.8584  169.7536 C.ar    1  UNL1        0.0885
     15 N         139.5634  140.3543  169.4395 N.ar    1  UNL1       -0.2457
     16 C         139.2329  139.8900  168.0520 C.ar    1  UNL1        0.0985
     17 C         141.2714  141.3227  171.1410 C.3     1  UNL1        0.1829
     18 O         142.3164  140.6052  171.9430 O.3     1  UNL1       -0.3760
     19 H         142.0111  139.7060  172.1411 H       1  UNL1        0.2110
     20 C         140.2624  141.1428  159.2792 C.2     1  UNL1        0.2455
     21 N         139.2135  141.4263  158.2451 N.am    1  UNL1       -0.3252
     22 O         141.6359  141.7280  159.1345 O.2     1  UNL1       -0.2703
     23 H         138.3120  141.0422  158.3401 H       1  UNL1        0.1453
     24 H         139.4266  141.9964  157.4713 H       1  UNL1        0.1453
     25 N         140.9235  142.0715  162.0542 N.pl3   1  UNL1       -0.3325
     26 H         141.9053  142.1382  162.0836 H       1  UNL1        0.1468
     27 C         140.0828  143.3030  162.2181 C.3     1  UNL1        0.0870
     28 C         139.9833  143.9703  163.5578 C.3     1  UNL1        0.0195
     29 C         142.2309  145.2664  163.6933 C.3     1  UNL1        0.0001
     30 C         141.2296  144.3344  164.3087 C.3     1  UNL1        0.0017
     31 C         138.6373  144.2736  164.1465 C.3     1  UNL1        0.0017
     32 C         138.5372  144.9022  165.5047 C.3     1  UNL1        0.0001
@<TRIPOS>BOND
     1    29    30    1
     2    30    28    1
     3    28    31    1
     4    31    32    1
     5    28    27    1
     6    27    25    1
     7    25     1    1
     8     1     2   ar
     9     2    20    1
    10    20    21   am
    11    20    22    2
    12     2     3   ar
    13     3     4   ar
    14     4     5   ar
    15     5     6   ar
    16     6     7   ar
    17     7     8   ar
    18     8    11    1
    19    11    12   ar
    20    12    13   ar
    21    13    14   ar
    22    14    17    1
    23    17    18    1
    24    14    15   ar
    25    15    16   ar
    26     8     9   ar
    27     9    10   ar
    28    10     1   ar
    29    10     5   ar
    30    16    11   ar
    31    25    26    1
    32    21    23    1
    33    21    24    1
    34    18    19    1
