@<TRIPOS>MOLECULE
*****
 44 49 0 0 0
SMALL
GASTEIGER

@<TRIPOS>ATOM
      1 C         143.8450  142.7430  162.1410 C.ar    1  UNL1        0.1066
      2 C         144.4785  141.6201  162.9078 C.ar    1  UNL1        0.1093
      3 N         144.4804  141.6434  164.4075 N.ar    1  UNL1       -0.2118
      4 C         143.8486  142.7894  165.1407 C.ar    1  UNL1        0.2218
      5 N         143.2150  143.9123  164.3740 N.ar    1  UNL1       -0.1986
      6 C         143.2132  143.8890  162.8741 C.ar    1  UNL1        0.1377
      7 C         144.5749  142.5322  158.3348 C.ar    1  UNL1        0.1804
      8 N         143.1059  142.8358  158.3318 N.ar    1  UNL1       -0.0602
      9 O         142.6537  142.9517  159.7573 O.2     1  UNL1       -0.3326
     10 C         143.8432  142.7198  160.6412 C.ar    1  UNL1        0.2639
     11 N         145.0305  142.4605  159.7621 N.ar    1  UNL1       -0.1910
     12 C         148.0229  141.7433  153.4881 C.3     1  UNL1        0.0896
     13 N         147.1609  141.9406  154.6998 N.3     1  UNL1       -0.2715
     14 C         147.7617  142.4646  155.9704 C.3     1  UNL1        0.0726
     15 C         146.8997  142.6618  157.1820 C.3     1  UNL1        0.0250
     16 C         145.4369  142.3350  157.1231 C.3     1  UNL1        0.0648
     17 C         144.8361  141.8110  155.8525 C.3     1  UNL1        0.0250
     18 C         145.6981  141.6138  154.6408 C.3     1  UNL1        0.0726
     19 N         143.8504  142.8126  166.6405 N.pl3   1  UNL1       -0.2825
     20 H         144.5714  143.2761  167.1247 H       1  UNL1        0.1551
     21 C         142.7536  142.1296  167.4025 C.ar    1  UNL1        0.0503
     22 C         142.7508  142.1601  168.9022 C.ar    1  UNL1        0.0149
     23 C         141.6540  141.4771  169.6641 C.ar    1  UNL1        0.0075
     24 C         140.5601  140.7636  168.9264 C.ar    1  UNL1        0.0750
     25 C         140.5629  140.7332  167.4267 C.ar    1  UNL1        0.0211
     26 C         141.6596  141.4162  166.6648 C.ar    1  UNL1        0.0139
     27 C         139.3608  139.9570  166.9766 C.3     1  UNL1        0.1553
     28 C         139.8778  140.2571  165.6009 C.3     1  UNL1        0.0484
     29 C         138.2669  139.2435  166.2389 C.3     1  UNL1        0.0484
     30 O         138.6151  139.5077  168.1982 O.3     1  UNL1       -0.4485
     31 C         139.3563  140.0062  169.4032 C.2     1  UNL1        0.3411
     32 O         138.9628  139.7860  170.8338 O.2     1  UNL1       -0.2449
     33 N         142.5796  145.0118  162.1074 N.pl3   1  UNL1       -0.3138
     34 H         143.1139  145.8000  161.8571 H       1  UNL1        0.1485
     35 CA        141.1320  144.9338  161.7220 C.3     1  UNL1        0.1227
     36 C         140.1175  144.4451  162.7129 C.ar    1  UNL1       -0.0021
     37 C         139.2194  143.2961  162.3620 C.ar    1  UNL1       -0.0026
     38 C         138.2048  142.8074  163.3528 C.ar    1  UNL1       -0.0003
     39 C         138.0883  143.4677  164.6946 C.ar    1  UNL1       -0.0000
     40 C         138.9864  144.6168  165.0455 C.ar    1  UNL1       -0.0003
     41 C         140.0010  145.1055  164.0547 C.ar    1  UNL1       -0.0026
     42 C         140.6991  145.3444  160.3458 C.3     1  UNL1        0.1611
     43 O         141.7263  145.6648  159.3008 O.3     1  UNL1       -0.3799
     44 H         142.2153  146.4609  159.5614 H       1  UNL1        0.2105
@<TRIPOS>BOND
     1    12    13    1
     2    13    14    1
     3    14    15    1
     4    15    16    1
     5    16     7    1
     6     7     8   ar
     7     8     9   ar
     8     9    10   ar
     9    10     1    1
    10     1     2   ar
    11     2     3   ar
    12     3     4   ar
    13     4    19    1
    14    19    21    1
    15    21    22   ar
    16    22    23   ar
    17    23    24   ar
    18    24    25   ar
    19    25    26   ar
    20    25    27    1
    21    27    28    1
    22    27    29    1
    23    27    30    1
    24    30    31    1
    25    31    32    2
    26     4     5   ar
    27     5     6   ar
    28     6    33    1
    29    33    35    1
    30    35    42    1
    31    42    43    1
    32    35    36    1
    33    36    37   ar
    34    37    38   ar
    35    38    39   ar
    36    39    40   ar
    37    40    41   ar
    38    10    11   ar
    39    16    17    1
    40    17    18    1
    41    18    13    1
    42    11     7   ar
    43     6     1   ar
    44    41    36   ar
    45    26    21   ar
    46    31    24    1
    47    19    20    1
    48    33    34    1
    49    43    44    1
@<TRIPOS>MOLECULE
*****
 44 49 0 0 0
SMALL
GASTEIGER

@<TRIPOS>ATOM
      1 C         141.5795  139.9724  160.4572 C.ar    1  UNL1        0.1066
      2 C         141.8590  138.5153  160.6780 C.ar    1  UNL1        0.1093
      3 N         141.1961  137.7875  161.8097 N.ar    1  UNL1       -0.2118
      4 C         140.2536  138.5169  162.7207 C.ar    1  UNL1        0.2218
      5 N         139.9741  139.9740  162.4999 N.ar    1  UNL1       -0.1986
      6 C         140.6371  140.7017  161.3681 C.ar    1  UNL1        0.1377
      7 C         143.8941  141.4341  157.7057 C.ar    1  UNL1        0.1804
      8 N         142.6313  142.2061  157.4623 N.ar    1  UNL1       -0.0602
      9 O         141.6105  141.7525  158.4634 O.2     1  UNL1       -0.3326
     10 C         142.2425  140.7002  159.3255 C.ar    1  UNL1        0.2639
     11 N         143.6538  140.5034  158.8572 N.ar    1  UNL1       -0.1910
     12 C         149.0088  141.9742  154.6155 C.3     1  UNL1        0.0896
     13 N         147.7302  141.8392  155.3881 N.3     1  UNL1       -0.2715
     14 C         147.5254  142.6333  156.6441 C.3     1  UNL1        0.0726
     15 C         146.2467  142.4982  157.4166 C.3     1  UNL1        0.0250
     16 C         145.1728  141.5691  156.9331 C.3     1  UNL1        0.0648
     17 C         145.3777  140.7751  155.6771 C.3     1  UNL1        0.0250
     18 C         146.6563  140.9102  154.9046 C.3     1  UNL1        0.0726
     19 N         139.5906  137.7891  163.8524 N.pl3   1  UNL1       -0.2825
     20 H         139.2197  136.8886  163.7084 H       1  UNL1        0.1551
     21 C         139.4928  138.4333  165.2035 C.ar    1  UNL1        0.0503
     22 C         138.1901  138.4228  165.9469 C.ar    1  UNL1        0.0149
     23 C         138.0923  139.0670  167.2979 C.ar    1  UNL1        0.0075
     24 C         139.2974  139.7218  167.9056 C.ar    1  UNL1        0.0750
     25 C         140.6001  139.7322  167.1622 C.ar    1  UNL1        0.0211
     26 C         140.6979  139.0880  165.8112 C.ar    1  UNL1        0.0139
     27 C         141.6107  140.4487  168.0081 C.3     1  UNL1        0.1553
     28 C         142.5408  140.1533  166.8689 C.3     1  UNL1        0.0484
     29 C         142.8157  141.1034  168.6157 C.3     1  UNL1        0.0484
     30 O         140.9325  140.8810  169.2742 O.3     1  UNL1       -0.4485
     31 C         139.5027  140.4318  169.2109 C.2     1  UNL1        0.3411
     32 O         138.4613  140.6535  170.2674 O.2     1  UNL1       -0.2449
     33 N         140.3576  142.1588  161.1474 N.pl3   1  UNL1       -0.3138
     34 H         139.7464  142.4394  160.4284 H       1  UNL1        0.1485
     35 CA        141.0095  143.1885  162.0221 C.3     1  UNL1        0.1227
     36 C         140.4302  143.5032  163.3694 C.ar    1  UNL1       -0.0021
     37 C         140.9785  142.8362  164.5960 C.ar    1  UNL1       -0.0026
     38 C         140.3992  143.1510  165.9433 C.ar    1  UNL1       -0.0003
     39 C         139.2716  144.1328  166.0641 C.ar    1  UNL1       -0.0000
     40 C         138.7232  144.7998  164.8375 C.ar    1  UNL1       -0.0003
     41 C         139.3025  144.4851  163.4902 C.ar    1  UNL1       -0.0026
     42 C         142.2405  143.9033  161.5494 C.3     1  UNL1        0.1611
     43 O         142.5500  143.9747  160.0834 O.3     1  UNL1       -0.3799
     44 H         142.7411  143.0843  159.7495 H       1  UNL1        0.2105
@<TRIPOS>BOND
     1    12    13    1
     2    13    14    1
     3    14    15    1
     4    15    16    1
     5    16     7    1
     6     7     8   ar
     7     8     9   ar
     8     9    10   ar
     9    10     1    1
    10     1     2   ar
    11     2     3   ar
    12     3     4   ar
    13     4    19    1
    14    19    21    1
    15    21    22   ar
    16    22    23   ar
    17    23    24   ar
    18    24    25   ar
    19    25    26   ar
    20    25    27    1
    21    27    28    1
    22    27    29    1
    23    27    30    1
    24    30    31    1
    25    31    32    2
    26     4     5   ar
    27     5     6   ar
    28     6    33    1
    29    33    35    1
    30    35    42    1
    31    42    43    1
    32    35    36    1
    33    36    37   ar
    34    37    38   ar
    35    38    39   ar
    36    39    40   ar
    37    40    41   ar
    38    10    11   ar
    39    16    17    1
    40    17    18    1
    41    18    13    1
    42    11     7   ar
    43     6     1   ar
    44    41    36   ar
    45    26    21   ar
    46    31    24    1
    47    19    20    1
    48    33    34    1
    49    43    44    1
@<TRIPOS>MOLECULE
*****
 44 49 0 0 0
SMALL
GASTEIGER

@<TRIPOS>ATOM
      1 C         143.8795  141.1997  158.5708 C.ar    1  UNL1        0.1066
      2 C         143.5220  142.6160  158.2296 C.ar    1  UNL1        0.1093
      3 N         143.2424  143.6032  159.3237 N.ar    1  UNL1       -0.2118
      4 C         143.3203  143.1743  160.7590 C.ar    1  UNL1        0.2218
      5 N         143.6778  141.7580  161.1001 N.ar    1  UNL1       -0.1986
      6 C         143.9574  140.7707  160.0060 C.ar    1  UNL1        0.1377
      7 C         143.9735  138.3091  155.9822 C.ar    1  UNL1        0.1804
      8 N         145.2052  139.0771  155.6039 N.ar    1  UNL1       -0.0602
      9 O         145.3199  140.2534  156.5276 O.2     1  UNL1       -0.3326
     10 C         144.1591  140.2124  157.4767 C.ar    1  UNL1        0.2639
     11 N         143.3269  139.0108  157.1396 N.ar    1  UNL1       -0.1910
     12 C         141.9822  133.3085  153.3308 C.3     1  UNL1        0.0896
     13 N         142.4800  134.5587  153.9937 N.3     1  UNL1       -0.2715
     14 C         143.3976  134.4659  155.1768 C.3     1  UNL1        0.0726
     15 C         143.8953  135.7161  155.8395 C.3     1  UNL1        0.0250
     16 C         143.4757  137.0590  155.3193 C.3     1  UNL1        0.0648
     17 C         142.5582  137.1517  154.1363 C.3     1  UNL1        0.0250
     18 C         142.0603  135.9015  153.4735 C.3     1  UNL1        0.0726
     19 N         143.0407  144.1615  161.8531 N.pl3   1  UNL1       -0.2825
     20 H         142.8361  145.0984  161.6303 H       1  UNL1        0.1551
     21 C         143.0728  143.7214  163.2868 C.ar    1  UNL1        0.0503
     22 C         144.2289  144.1033  164.1628 C.ar    1  UNL1        0.0149
     23 C         144.2610  143.6631  165.5964 C.ar    1  UNL1        0.0075
     24 C         143.1369  142.8411  166.1539 C.ar    1  UNL1        0.0750
     25 C         141.9808  142.4592  165.2779 C.ar    1  UNL1        0.0211
     26 C         141.9488  142.8993  163.8443 C.ar    1  UNL1        0.0139
     27 C         141.0240  141.6481  166.1005 C.3     1  UNL1        0.1553
     28 C         140.2243  141.5957  164.8325 C.3     1  UNL1        0.0484
     29 C         139.9000  140.8261  166.6580 C.3     1  UNL1        0.0484
     30 O         141.5888  141.5288  167.4850 O.3     1  UNL1       -0.4485
     31 C         142.8947  142.2661  167.5181 C.2     1  UNL1        0.3411
     32 O         143.7994  142.4041  168.7065 O.2     1  UNL1       -0.2449
     33 N         144.3149  139.3544  160.3471 N.pl3   1  UNL1       -0.3138
     34 H         145.1804  138.9826  160.0609 H       1  UNL1        0.1485
     35 CA        143.3536  138.5046  161.1242 C.3     1  UNL1        0.1227
     36 C         143.2986  138.6105  162.6195 C.ar    1  UNL1       -0.0021
     37 C         142.1267  138.0488  163.3685 C.ar    1  UNL1       -0.0026
     38 C         142.0716  138.1546  164.8637 C.ar    1  UNL1       -0.0003
     39 C         143.1885  138.8222  165.6100 C.ar    1  UNL1       -0.0000
     40 C         144.3605  139.3839  164.8610 C.ar    1  UNL1       -0.0003
     41 C         144.4155  139.2781  163.3657 C.ar    1  UNL1       -0.0026
     42 C         142.4475  137.5490  160.4061 C.3     1  UNL1        0.1611
     43 O         142.8382  137.0118  159.0613 O.3     1  UNL1       -0.3799
     44 H         142.8545  137.7360  158.4161 H       1  UNL1        0.2105
@<TRIPOS>BOND
     1    12    13    1
     2    13    14    1
     3    14    15    1
     4    15    16    1
     5    16     7    1
     6     7     8   ar
     7     8     9   ar
     8     9    10   ar
     9    10     1    1
    10     1     2   ar
    11     2     3   ar
    12     3     4   ar
    13     4    19    1
    14    19    21    1
    15    21    22   ar
    16    22    23   ar
    17    23    24   ar
    18    24    25   ar
    19    25    26   ar
    20    25    27    1
    21    27    28    1
    22    27    29    1
    23    27    30    1
    24    30    31    1
    25    31    32    2
    26     4     5   ar
    27     5     6   ar
    28     6    33    1
    29    33    35    1
    30    35    42    1
    31    42    43    1
    32    35    36    1
    33    36    37   ar
    34    37    38   ar
    35    38    39   ar
    36    39    40   ar
    37    40    41   ar
    38    10    11   ar
    39    16    17    1
    40    17    18    1
    41    18    13    1
    42    11     7   ar
    43     6     1   ar
    44    41    36   ar
    45    26    21   ar
    46    31    24    1
    47    19    20    1
    48    33    34    1
    49    43    44    1
@<TRIPOS>MOLECULE
*****
 44 49 0 0 0
SMALL
GASTEIGER

@<TRIPOS>ATOM
      1 C         139.1871  139.5441  159.8716 C.ar    1  UNL1        0.1066
      2 C         138.0409  140.5057  159.9792 C.ar    1  UNL1        0.1093
      3 N         137.4971  140.8765  161.3271 N.ar    1  UNL1       -0.2118
      4 C         138.0995  140.2858  162.5674 C.ar    1  UNL1        0.2218
      5 N         139.2457  139.3242  162.4597 N.ar    1  UNL1       -0.1986
      6 C         139.7895  138.9534  161.1118 C.ar    1  UNL1        0.1377
      7 C         140.5318  137.8766  156.6349 C.ar    1  UNL1        0.1804
      8 N         140.6038  139.3284  156.2644 N.ar    1  UNL1       -0.0602
      9 O         140.1088  140.1297  157.4318 O.2     1  UNL1       -0.3326
     10 C         139.7309  139.1732  158.5238 C.ar    1  UNL1        0.2639
     11 N         139.9924  137.7808  158.0313 N.ar    1  UNL1       -0.1910
     12 C         142.1227  133.2631  153.1442 C.3     1  UNL1        0.0896
     13 N         141.7250  134.4165  154.0169 N.3     1  UNL1       -0.2715
     14 C         142.3190  134.5602  155.3868 C.3     1  UNL1        0.0726
     15 C         141.9212  135.7136  156.2594 C.3     1  UNL1        0.0250
     16 C         140.9295  136.7232  155.7622 C.3     1  UNL1        0.0648
     17 C         140.3356  136.5795  154.3924 C.3     1  UNL1        0.0250
     18 C         140.7333  135.4261  153.5197 C.3     1  UNL1        0.0726
     19 N         137.5557  140.6567  163.9152 N.pl3   1  UNL1       -0.2825
     20 H         136.6471  141.0275  163.9944 H       1  UNL1        0.1551
     21 C         138.3961  140.4626  165.1424 C.ar    1  UNL1        0.0503
     22 C         137.9449  139.5208  166.2192 C.ar    1  UNL1        0.0149
     23 C         138.7854  139.3267  167.4463 C.ar    1  UNL1        0.0075
     24 C         140.0770  140.0744  167.5967 C.ar    1  UNL1        0.0750
     25 C         140.5282  141.0161  166.5199 C.ar    1  UNL1        0.0211
     26 C         139.6878  141.2102  165.2928 C.ar    1  UNL1        0.0139
     27 C         141.8384  141.6111  166.9436 C.3     1  UNL1        0.1553
     28 C         141.7499  142.3415  165.6364 C.3     1  UNL1        0.0484
     29 C         143.1300  142.3588  167.0940 C.3     1  UNL1        0.0484
     30 O         142.1969  141.0371  168.2823 O.3     1  UNL1       -0.4485
     31 C         141.1084  140.0873  168.6859 C.2     1  UNL1        0.3411
     32 O         141.0596  139.2904  169.9558 O.2     1  UNL1       -0.2449
     33 N         140.9357  137.9918  161.0042 N.pl3   1  UNL1       -0.3138
     34 H         140.7703  137.0552  160.7499 H       1  UNL1        0.1485
     35 CA        142.3340  138.4573  161.2840 C.3     1  UNL1        0.1227
     36 C         142.8097  138.5938  162.7000 C.ar    1  UNL1       -0.0021
     37 C         142.0107  137.9972  163.8205 C.ar    1  UNL1       -0.0026
     38 C         142.4864  138.1337  165.2365 C.ar    1  UNL1       -0.0003
     39 C         143.7612  138.8668  165.5320 C.ar    1  UNL1       -0.0000
     40 C         144.5604  139.4634  164.4115 C.ar    1  UNL1       -0.0003
     41 C         144.0846  139.3269  162.9955 C.ar    1  UNL1       -0.0026
     42 C         143.2564  138.7862  160.1479 C.3     1  UNL1        0.1611
     43 O         143.1403  138.0452  158.8489 O.3     1  UNL1       -0.3799
     44 H         143.3765  137.1144  158.9854 H       1  UNL1        0.2105
@<TRIPOS>BOND
     1    12    13    1
     2    13    14    1
     3    14    15    1
     4    15    16    1
     5    16     7    1
     6     7     8   ar
     7     8     9   ar
     8     9    10   ar
     9    10     1    1
    10     1     2   ar
    11     2     3   ar
    12     3     4   ar
    13     4    19    1
    14    19    21    1
    15    21    22   ar
    16    22    23   ar
    17    23    24   ar
    18    24    25   ar
    19    25    26   ar
    20    25    27    1
    21    27    28    1
    22    27    29    1
    23    27    30    1
    24    30    31    1
    25    31    32    2
    26     4     5   ar
    27     5     6   ar
    28     6    33    1
    29    33    35    1
    30    35    42    1
    31    42    43    1
    32    35    36    1
    33    36    37   ar
    34    37    38   ar
    35    38    39   ar
    36    39    40   ar
    37    40    41   ar
    38    10    11   ar
    39    16    17    1
    40    17    18    1
    41    18    13    1
    42    11     7   ar
    43     6     1   ar
    44    41    36   ar
    45    26    21   ar
    46    31    24    1
    47    19    20    1
    48    33    34    1
    49    43    44    1
@<TRIPOS>MOLECULE
*****
 44 49 0 0 0
SMALL
GASTEIGER

@<TRIPOS>ATOM
      1 C         143.4869  142.6028  161.8000 C.ar    1  UNL1        0.1066
      2 C         144.0940  141.4507  162.5444 C.ar    1  UNL1        0.1093
      3 N         144.2153  141.5036  164.0386 N.ar    1  UNL1       -0.2118
      4 C         143.7296  142.7086  164.7883 C.ar    1  UNL1        0.2218
      5 N         143.1226  143.8607  164.0439 N.ar    1  UNL1       -0.1986
      6 C         143.0012  143.8078  162.5497 C.ar    1  UNL1        0.1377
      7 C         143.0408  141.7322  158.0440 C.ar    1  UNL1        0.1804
      8 N         143.3167  143.2048  157.9694 N.ar    1  UNL1       -0.0602
      9 O         143.5174  143.7101  159.3674 O.2     1  UNL1       -0.3326
     10 C         143.3655  142.5499  160.3059 C.ar    1  UNL1        0.2639
     11 N         143.0710  141.3275  159.4880 N.ar    1  UNL1       -0.1910
     12 C         141.9994  138.0989  153.3840 C.3     1  UNL1        0.0896
     13 N         142.2598  139.0072  154.5490 N.3     1  UNL1       -0.2715
     14 C         141.4054  140.2224  154.7582 C.3     1  UNL1        0.0726
     15 C         141.6659  141.1307  155.9232 C.3     1  UNL1        0.0250
     16 C         142.7805  140.8239  156.8790 C.3     1  UNL1        0.0648
     17 C         143.6347  139.6088  156.6698 C.3     1  UNL1        0.0250
     18 C         143.3744  138.7005  155.5048 C.3     1  UNL1        0.0726
     19 N         143.8510  142.7615  166.2825 N.pl3   1  UNL1       -0.2825
     20 H         144.6068  143.2357  166.6985 H       1  UNL1        0.1551
     21 C         142.8208  142.0917  167.1428 C.ar    1  UNL1        0.0503
     22 C         142.9507  142.1310  168.6366 C.ar    1  UNL1        0.0149
     23 C         141.9205  141.4613  169.4969 C.ar    1  UNL1        0.0075
     24 C         140.7603  140.7523  168.8634 C.ar    1  UNL1        0.0750
     25 C         140.6304  140.7131  167.3696 C.ar    1  UNL1        0.0211
     26 C         141.6606  141.3828  166.5093 C.ar    1  UNL1        0.0139
     27 C         139.3875  139.9439  167.0325 C.3     1  UNL1        0.1553
     28 C         139.7831  140.2318  165.6145 C.3     1  UNL1        0.0484
     29 C         138.2273  139.2350  166.3989 C.3     1  UNL1        0.0484
     30 O         138.7493  139.5078  168.3180 O.3     1  UNL1       -0.4485
     31 C         139.5977  140.0074  169.4496 C.2     1  UNL1        0.3411
     32 O         139.3306  139.7988  170.9108 O.2     1  UNL1       -0.2449
     33 N         142.3941  144.9598  161.8053 N.pl3   1  UNL1       -0.3138
     34 H         142.9463  145.7407  161.5717 H       1  UNL1        0.1485
     35 CA        140.9457  144.9222  161.4169 C.3     1  UNL1        0.1227
     36 C         139.9133  144.4845  162.4131 C.ar    1  UNL1       -0.0021
     37 C         139.8612  145.1236  163.7692 C.ar    1  UNL1       -0.0026
     38 C         138.8287  144.6859  164.7654 C.ar    1  UNL1       -0.0003
     39 C         137.8483  143.6093  164.4056 C.ar    1  UNL1       -0.0000
     40 C         137.9003  142.9702  163.0495 C.ar    1  UNL1       -0.0003
     41 C         138.9328  143.4078  162.0532 C.ar    1  UNL1       -0.0026
     42 C         140.5299  145.3221  160.0323 C.3     1  UNL1        0.1611
     43 O         141.5700  145.6332  158.9973 O.3     1  UNL1       -0.3799
     44 H         142.0565  146.4310  159.2574 H       1  UNL1        0.2105
@<TRIPOS>BOND
     1    12    13    1
     2    13    14    1
     3    14    15    1
     4    15    16    1
     5    16     7    1
     6     7     8   ar
     7     8     9   ar
     8     9    10   ar
     9    10     1    1
    10     1     2   ar
    11     2     3   ar
    12     3     4   ar
    13     4    19    1
    14    19    21    1
    15    21    22   ar
    16    22    23   ar
    17    23    24   ar
    18    24    25   ar
    19    25    26   ar
    20    25    27    1
    21    27    28    1
    22    27    29    1
    23    27    30    1
    24    30    31    1
    25    31    32    2
    26     4     5   ar
    27     5     6   ar
    28     6    33    1
    29    33    35    1
    30    35    42    1
    31    42    43    1
    32    35    36    1
    33    36    37   ar
    34    37    38   ar
    35    38    39   ar
    36    39    40   ar
    37    40    41   ar
    38    10    11   ar
    39    16    17    1
    40    17    18    1
    41    18    13    1
    42    11     7   ar
    43     6     1   ar
    44    41    36   ar
    45    26    21   ar
    46    31    24    1
    47    19    20    1
    48    33    34    1
    49    43    44    1
@<TRIPOS>MOLECULE
*****
 44 49 0 0 0
SMALL
GASTEIGER

@<TRIPOS>ATOM
      1 C         140.5818  142.2526  158.0269 C.ar    1  UNL1        0.1066
      2 C         141.4056  141.0524  157.6654 C.ar    1  UNL1        0.1093
      3 N         141.7261  140.0214  158.7067 N.ar    1  UNL1       -0.2118
      4 C         141.2227  140.1906  160.1096 C.ar    1  UNL1        0.2218
      5 N         140.3989  141.3909  160.4711 N.ar    1  UNL1       -0.1986
      6 C         140.0784  142.4219  159.4297 C.ar    1  UNL1        0.1377
      7 C         139.7916  145.4064  155.9070 C.ar    1  UNL1        0.1804
      8 N         139.7449  144.3339  154.8594 N.ar    1  UNL1       -0.0602
      9 O         140.0352  143.0219  155.5261 O.2     1  UNL1       -0.3326
     10 C         140.2614  143.2836  156.9856 C.ar    1  UNL1        0.2639
     11 N         140.1108  144.7573  157.2211 N.ar    1  UNL1       -0.1910
     12 C         138.8644  151.2647  155.0003 C.3     1  UNL1        0.0896
     13 N         139.0962  149.8001  155.2270 N.3     1  UNL1       -0.2715
     14 C         139.7772  148.9768  154.1741 C.3     1  UNL1        0.0726
     15 C         140.0089  147.5122  154.4009 C.3     1  UNL1        0.0250
     16 C         139.5598  146.8710  155.6804 C.3     1  UNL1        0.0648
     17 C         138.8789  147.6943  156.7332 C.3     1  UNL1        0.0250
     18 C         138.6471  149.1589  156.5065 C.3     1  UNL1        0.0726
     19 N         141.5432  139.1597  161.1509 N.pl3   1  UNL1       -0.2825
     20 H         142.2896  138.5334  161.0102 H       1  UNL1        0.1551
     21 C         140.7263  139.0829  162.4067 C.ar    1  UNL1        0.0503
     22 C         139.6832  138.0158  162.5588 C.ar    1  UNL1        0.0149
     23 C         138.8664  137.9391  163.8145 C.ar    1  UNL1        0.0075
     24 C         139.0927  138.9294  164.9182 C.ar    1  UNL1        0.0750
     25 C         140.1358  139.9965  164.7661 C.ar    1  UNL1        0.0211
     26 C         140.9526  140.0732  163.5103 C.ar    1  UNL1        0.0139
     27 C         140.1339  140.8278  166.0146 C.3     1  UNL1        0.1553
     28 C         141.2256  141.5881  165.3216 C.3     1  UNL1        0.0484
     29 C         140.3603  141.8182  167.1182 C.3     1  UNL1        0.0484
     30 O         139.0896  140.2746  166.9383 O.3     1  UNL1       -0.4485
     31 C         138.4461  139.1013  166.2607 C.2     1  UNL1        0.3411
     32 O         137.3486  138.2494  166.8263 O.2     1  UNL1       -0.2449
     33 N         139.2546  143.6222  159.7913 N.pl3   1  UNL1       -0.3138
     34 H         138.4626  143.8553  159.2550 H       1  UNL1        0.1485
     35 CA        139.6375  144.4673  160.9699 C.3     1  UNL1        0.1227
     36 C         139.0643  144.1700  162.3238 C.ar    1  UNL1       -0.0021
     37 C         138.0699  143.0593  162.4898 C.ar    1  UNL1       -0.0026
     38 C         137.4967  142.7620  163.8437 C.ar    1  UNL1       -0.0003
     39 C         137.9177  143.5754  165.0316 C.ar    1  UNL1       -0.0000
     40 C         138.9121  144.6862  164.8656 C.ar    1  UNL1       -0.0003
     41 C         139.4854  144.9835  163.5117 C.ar    1  UNL1       -0.0026
     42 C         140.5937  145.6096  160.7947 C.3     1  UNL1        0.1611
     43 O         141.7137  145.5048  159.8024 O.3     1  UNL1       -0.3799
     44 H         142.3344  144.8158  160.0870 H       1  UNL1        0.2105
@<TRIPOS>BOND
     1    12    13    1
     2    13    14    1
     3    14    15    1
     4    15    16    1
     5    16     7    1
     6     7     8   ar
     7     8     9   ar
     8     9    10   ar
     9    10     1    1
    10     1     2   ar
    11     2     3   ar
    12     3     4   ar
    13     4    19    1
    14    19    21    1
    15    21    22   ar
    16    22    23   ar
    17    23    24   ar
    18    24    25   ar
    19    25    26   ar
    20    25    27    1
    21    27    28    1
    22    27    29    1
    23    27    30    1
    24    30    31    1
    25    31    32    2
    26     4     5   ar
    27     5     6   ar
    28     6    33    1
    29    33    35    1
    30    35    42    1
    31    42    43    1
    32    35    36    1
    33    36    37   ar
    34    37    38   ar
    35    38    39   ar
    36    39    40   ar
    37    40    41   ar
    38    10    11   ar
    39    16    17    1
    40    17    18    1
    41    18    13    1
    42    11     7   ar
    43     6     1   ar
    44    41    36   ar
    45    26    21   ar
    46    31    24    1
    47    19    20    1
    48    33    34    1
    49    43    44    1
@<TRIPOS>MOLECULE
*****
 44 49 0 0 0
SMALL
GASTEIGER

@<TRIPOS>ATOM
      1 C         138.6457  140.2293  160.2200 C.ar    1  UNL1        0.1066
      2 C         137.6385  139.2149  160.6745 C.ar    1  UNL1        0.1093
      3 N         137.8768  138.4325  161.9319 N.ar    1  UNL1       -0.2118
      4 C         139.1224  138.6645  162.7349 C.ar    1  UNL1        0.2218
      5 N         140.1297  139.6789  162.2804 N.ar    1  UNL1       -0.1986
      6 C         139.8913  140.4613  161.0230 C.ar    1  UNL1        0.1377
      7 C         138.4341  142.7885  157.3097 C.ar    1  UNL1        0.1804
      8 N         137.6472  141.6427  156.7458 N.ar    1  UNL1       -0.0602
      9 O         137.6307  140.5446  157.7674 O.2     1  UNL1       -0.3326
     10 C         138.4074  141.0116  158.9627 C.ar    1  UNL1        0.2639
     11 N         138.9040  142.3985  158.6797 N.ar    1  UNL1       -0.1910
     12 C         139.5132  148.0145  154.5662 C.3     1  UNL1        0.0896
     13 N         139.2434  146.7080  155.2521 N.3     1  UNL1       -0.2715
     14 C         140.1791  146.2112  156.3141 C.3     1  UNL1        0.0726
     15 C         139.9092  144.9047  156.9999 C.3     1  UNL1        0.0250
     16 C         138.7039  144.0950  156.6238 C.3     1  UNL1        0.0648
     17 C         137.7683  144.5918  155.5618 C.3     1  UNL1        0.0250
     18 C         138.0380  145.8983  154.8760 C.3     1  UNL1        0.0726
     19 N         139.3608  137.8821  163.9922 N.pl3   1  UNL1       -0.2825
     20 H         139.5166  136.9111  163.9457 H       1  UNL1        0.1551
     21 C         139.3617  138.5791  165.3205 C.ar    1  UNL1        0.0503
     22 C         138.1630  138.4860  166.2173 C.ar    1  UNL1        0.0149
     23 C         138.1640  139.1830  167.5454 C.ar    1  UNL1        0.0075
     24 C         139.3637  139.9731  167.9769 C.ar    1  UNL1        0.0750
     25 C         140.5625  140.0663  167.0801 C.ar    1  UNL1        0.0211
     26 C         140.5615  139.3693  165.7520 C.ar    1  UNL1        0.0139
     27 C         141.5923  140.9117  167.7693 C.3     1  UNL1        0.1553
     28 C         142.4055  140.6476  166.5368 C.3     1  UNL1        0.0484
     29 C         142.7921  141.7019  168.2007 C.3     1  UNL1        0.0484
     30 O         141.0299  141.3410  169.0919 O.3     1  UNL1       -0.4485
     31 C         139.6526  140.7610  169.2203 C.2     1  UNL1        0.3411
     32 O         138.7267  140.9377  170.3871 O.2     1  UNL1       -0.2449
     33 N         140.8985  141.4757  160.5685 N.pl3   1  UNL1       -0.3138
     34 H         141.4398  141.3057  159.7640 H       1  UNL1        0.1485
     35 CA        141.0809  142.7492  161.3399 C.3     1  UNL1        0.1227
     36 C         140.1459  143.0859  162.4635 C.ar    1  UNL1       -0.0021
     37 C         138.8052  143.6902  162.1681 C.ar    1  UNL1       -0.0026
     38 C         137.8703  144.0269  163.2917 C.ar    1  UNL1       -0.0003
     39 C         138.2760  143.7593  164.7107 C.ar    1  UNL1       -0.0000
     40 C         139.6167  143.1550  165.0062 C.ar    1  UNL1       -0.0003
     41 C         140.5517  142.8183  163.8826 C.ar    1  UNL1       -0.0026
     42 C         142.1982  143.6859  160.9877 C.3     1  UNL1        0.1611
     43 O         142.2590  145.0488  161.6112 O.3     1  UNL1       -0.3799
     44 H         141.5034  145.5766  161.3090 H       1  UNL1        0.2105
@<TRIPOS>BOND
     1    12    13    1
     2    13    14    1
     3    14    15    1
     4    15    16    1
     5    16     7    1
     6     7     8   ar
     7     8     9   ar
     8     9    10   ar
     9    10     1    1
    10     1     2   ar
    11     2     3   ar
    12     3     4   ar
    13     4    19    1
    14    19    21    1
    15    21    22   ar
    16    22    23   ar
    17    23    24   ar
    18    24    25   ar
    19    25    26   ar
    20    25    27    1
    21    27    28    1
    22    27    29    1
    23    27    30    1
    24    30    31    1
    25    31    32    2
    26     4     5   ar
    27     5     6   ar
    28     6    33    1
    29    33    35    1
    30    35    42    1
    31    42    43    1
    32    35    36    1
    33    36    37   ar
    34    37    38   ar
    35    38    39   ar
    36    39    40   ar
    37    40    41   ar
    38    10    11   ar
    39    16    17    1
    40    17    18    1
    41    18    13    1
    42    11     7   ar
    43     6     1   ar
    44    41    36   ar
    45    26    21   ar
    46    31    24    1
    47    19    20    1
    48    33    34    1
    49    43    44    1
@<TRIPOS>MOLECULE
*****
 44 49 0 0 0
SMALL
GASTEIGER

@<TRIPOS>ATOM
      1 C         143.2552  138.8396  162.6336 C.ar    1  UNL1        0.1066
      2 C         144.3613  139.4996  163.4024 C.ar    1  UNL1        0.1093
      3 N         144.4607  139.3084  164.8868 N.ar    1  UNL1       -0.2118
      4 C         143.4542  138.4571  165.6025 C.ar    1  UNL1        0.2218
      5 N         142.3481  137.7971  164.8337 N.ar    1  UNL1       -0.1986
      6 C         142.2487  137.9883  163.3493 C.ar    1  UNL1        0.1377
      7 C         142.3001  139.5755  158.9443 C.ar    1  UNL1        0.1804
      8 N         143.7051  139.0744  158.7855 N.ar    1  UNL1       -0.0602
      9 O         144.2338  138.7377  160.1483 O.2     1  UNL1       -0.3326
     10 C         143.1557  139.0307  161.1492 C.ar    1  UNL1        0.2639
     11 N         141.9607  139.5485  160.4051 N.ar    1  UNL1       -0.1910
     12 C         138.6750  141.3724  154.5137 C.3     1  UNL1        0.0896
     13 N         139.5813  140.9231  155.6213 N.3     1  UNL1       -0.2715
     14 C         140.6017  141.8672  156.1850 C.3     1  UNL1        0.0726
     15 C         141.5079  141.4179  157.2926 C.3     1  UNL1        0.0250
     16 C         141.3938  140.0247  157.8366 C.3     1  UNL1        0.0648
     17 C         140.3735  139.0807  157.2730 C.3     1  UNL1        0.0250
     18 C         139.4672  139.5299  156.1653 C.3     1  UNL1        0.0726
     19 N         143.5536  138.2660  167.0869 N.pl3   1  UNL1       -0.2825
     20 H         144.1022  137.5352  167.4534 H       1  UNL1        0.1551
     21 C         142.8173  139.1881  168.0129 C.ar    1  UNL1        0.0503
     22 C         142.7813  138.9013  169.4848 C.ar    1  UNL1        0.0149
     23 C         142.0449  139.8235  170.4107 C.ar    1  UNL1        0.0075
     24 C         141.3446  141.0324  169.8648 C.ar    1  UNL1        0.0750
     25 C         141.3806  141.3192  168.3929 C.ar    1  UNL1        0.0211
     26 C         142.1169  140.3970  167.4670 C.ar    1  UNL1        0.0139
     27 C         140.6028  142.5779  168.1468 C.3     1  UNL1        0.1553
     28 C         140.9731  142.3395  166.7129 C.3     1  UNL1        0.0484
     29 C         139.9025  143.7869  167.6009 C.3     1  UNL1        0.0484
     30 O         140.0861  143.0691  169.4666 O.3     1  UNL1       -0.4485
     31 C         140.5445  142.1139  170.5284 C.2     1  UNL1        0.3411
     32 O         140.2540  142.2214  171.9960 O.2     1  UNL1       -0.2449
     33 N         141.1426  137.3283  162.5805 N.pl3   1  UNL1       -0.3138
     34 H         141.3311  136.5329  162.0317 H       1  UNL1        0.1485
     35 CA        139.7493  137.8800  162.6479 C.3     1  UNL1        0.1227
     36 C         139.1756  138.3091  163.9658 C.ar    1  UNL1       -0.0021
     37 C         138.9640  139.7661  164.2528 C.ar    1  UNL1       -0.0026
     38 C         138.3902  140.1952  165.5707 C.ar    1  UNL1       -0.0003
     39 C         138.0282  139.1674  166.6014 C.ar    1  UNL1       -0.0000
     40 C         138.2398  137.7104  166.3144 C.ar    1  UNL1       -0.0003
     41 C         138.8136  137.2812  164.9965 C.ar    1  UNL1       -0.0026
     42 C         138.9299  138.0025  161.3976 C.3     1  UNL1        0.1611
     43 O         139.0760  139.2106  160.5205 O.3     1  UNL1       -0.3799
     44 H         138.7637  139.9957  160.9968 H       1  UNL1        0.2105
@<TRIPOS>BOND
     1    12    13    1
     2    13    14    1
     3    14    15    1
     4    15    16    1
     5    16     7    1
     6     7     8   ar
     7     8     9   ar
     8     9    10   ar
     9    10     1    1
    10     1     2   ar
    11     2     3   ar
    12     3     4   ar
    13     4    19    1
    14    19    21    1
    15    21    22   ar
    16    22    23   ar
    17    23    24   ar
    18    24    25   ar
    19    25    26   ar
    20    25    27    1
    21    27    28    1
    22    27    29    1
    23    27    30    1
    24    30    31    1
    25    31    32    2
    26     4     5   ar
    27     5     6   ar
    28     6    33    1
    29    33    35    1
    30    35    42    1
    31    42    43    1
    32    35    36    1
    33    36    37   ar
    34    37    38   ar
    35    38    39   ar
    36    39    40   ar
    37    40    41   ar
    38    10    11   ar
    39    16    17    1
    40    17    18    1
    41    18    13    1
    42    11     7   ar
    43     6     1   ar
    44    41    36   ar
    45    26    21   ar
    46    31    24    1
    47    19    20    1
    48    33    34    1
    49    43    44    1
@<TRIPOS>MOLECULE
*****
 44 49 0 0 0
SMALL
GASTEIGER

@<TRIPOS>ATOM
      1 C         142.7544  139.5207  160.9882 C.ar    1  UNL1        0.1066
      2 C         143.7838  138.8229  161.8269 C.ar    1  UNL1        0.1093
      3 N         144.0634  139.2993  163.2215 N.ar    1  UNL1       -0.2118
      4 C         143.3136  140.4735  163.7774 C.ar    1  UNL1        0.2218
      5 N         142.2842  141.1713  162.9387 N.ar    1  UNL1       -0.1986
      6 C         142.0046  140.6949  161.5441 C.ar    1  UNL1        0.1377
      7 C         142.2950  137.6283  157.6307 C.ar    1  UNL1        0.1804
      8 N         141.7939  138.9940  157.2646 N.ar    1  UNL1       -0.0602
      9 O         141.9051  139.8690  158.4778 O.2     1  UNL1       -0.3326
     10 C         142.4748  139.0443  159.5937 C.ar    1  UNL1        0.2639
     11 N         142.7157  137.6594  159.0702 N.ar    1  UNL1       -0.1910
     12 C         142.5681  132.8757  153.9785 C.3     1  UNL1        0.0896
     13 N         142.4998  134.0638  154.8916 N.3     1  UNL1       -0.2715
     14 C         141.2687  134.9205  154.9168 C.3     1  UNL1        0.0726
     15 C         141.2005  136.1087  155.8299 C.3     1  UNL1        0.0250
     16 C         142.3633  136.4401  156.7177 C.3     1  UNL1        0.0648
     17 C         143.5943  135.5834  156.6924 C.3     1  UNL1        0.0250
     18 C         143.6626  134.3953  155.7793 C.3     1  UNL1        0.0726
     19 N         143.5932  140.9499  165.1719 N.pl3   1  UNL1       -0.2825
     20 H         144.4704  141.3387  165.3927 H       1  UNL1        0.1551
     21 C         142.5364  140.8341  166.2302 C.ar    1  UNL1        0.0503
     22 C         142.7025  141.5502  167.5376 C.ar    1  UNL1        0.0149
     23 C         141.6457  141.4343  168.5958 C.ar    1  UNL1        0.0075
     24 C         140.4228  140.6023  168.3464 C.ar    1  UNL1        0.0750
     25 C         140.2567  139.8862  167.0390 C.ar    1  UNL1        0.0211
     26 C         141.3135  140.0021  165.9808 C.ar    1  UNL1        0.0139
     27 C         138.9535  139.1444  167.0791 C.3     1  UNL1        0.1553
     28 C         139.3371  138.7128  165.6947 C.3     1  UNL1        0.0484
     29 C         137.7306  138.3124  166.8298 C.3     1  UNL1        0.0484
     30 O         138.3143  139.4021  168.4114 O.3     1  UNL1       -0.4485
     31 C         139.2223  140.3031  169.1947 C.2     1  UNL1        0.3411
     32 O         138.9736  140.8151  170.5825 O.2     1  UNL1       -0.2449
     33 N         140.9752  141.3927  160.7054 N.pl3   1  UNL1       -0.3138
     34 H         141.2563  141.9537  159.9468 H       1  UNL1        0.1485
     35 CA        139.5175  141.2356  161.0226 C.3     1  UNL1        0.1227
     36 C         138.9120  141.9975  162.1640 C.ar    1  UNL1       -0.0021
     37 C         138.5115  143.4313  161.9802 C.ar    1  UNL1       -0.0026
     38 C         137.9060  144.1931  163.1217 C.ar    1  UNL1       -0.0003
     39 C         137.7011  143.5212  164.4470 C.ar    1  UNL1       -0.0000
     40 C         138.1017  142.0874  164.6309 C.ar    1  UNL1       -0.0003
     41 C         138.7071  141.3255  163.4894 C.ar    1  UNL1       -0.0026
     42 C         138.6653  140.3168  160.1983 C.3     1  UNL1        0.1611
     43 O         139.2043  139.7345  158.9253 O.3     1  UNL1       -0.3799
     44 H         139.3481  140.4447  158.2804 H       1  UNL1        0.2105
@<TRIPOS>BOND
     1    12    13    1
     2    13    14    1
     3    14    15    1
     4    15    16    1
     5    16     7    1
     6     7     8   ar
     7     8     9   ar
     8     9    10   ar
     9    10     1    1
    10     1     2   ar
    11     2     3   ar
    12     3     4   ar
    13     4    19    1
    14    19    21    1
    15    21    22   ar
    16    22    23   ar
    17    23    24   ar
    18    24    25   ar
    19    25    26   ar
    20    25    27    1
    21    27    28    1
    22    27    29    1
    23    27    30    1
    24    30    31    1
    25    31    32    2
    26     4     5   ar
    27     5     6   ar
    28     6    33    1
    29    33    35    1
    30    35    42    1
    31    42    43    1
    32    35    36    1
    33    36    37   ar
    34    37    38   ar
    35    38    39   ar
    36    39    40   ar
    37    40    41   ar
    38    10    11   ar
    39    16    17    1
    40    17    18    1
    41    18    13    1
    42    11     7   ar
    43     6     1   ar
    44    41    36   ar
    45    26    21   ar
    46    31    24    1
    47    19    20    1
    48    33    34    1
    49    43    44    1
