@<TRIPOS>MOLECULE
*****
 32 35 0 0 0
SMALL
GASTEIGER

@<TRIPOS>ATOM
      1 C         141.6145  144.2992  161.1714 C.3     1  UNL1        0.1004
      2 C         141.2583  144.4629  159.7235 C.3     1  UNL1        0.1085
      3 N         140.0030  143.6839  159.4640 N.pl3   1  UNL1       -0.3057
      4 C         139.5834  143.0387  160.7514 C.3     1  UNL1        0.0966
      5 C         140.5793  143.4190  161.8067 C.3     1  UNL1        0.0598
      6 C         139.2922  143.5700  158.1480 C.ar    1  UNL1        0.0479
      7 C         138.1504  142.6096  157.9929 C.ar    1  UNL1        0.0145
      8 C         137.4397  142.4958  156.6769 C.ar    1  UNL1        0.0013
      9 C         137.8706  143.3424  155.5160 C.ar    1  UNL1        0.0001
     10 C         139.0124  144.3027  155.6711 C.ar    1  UNL1        0.0013
     11 C         139.7231  144.4165  156.9871 C.ar    1  UNL1        0.0145
     12 C         140.5459  142.9937  163.2448 C.ar    1  UNL1       -0.0194
     13 C         141.0840  141.6512  163.6425 C.ar    1  UNL1       -0.0042
     14 C         141.0506  141.2259  165.0806 C.ar    1  UNL1       -0.0003
     15 C         140.4792  142.1432  166.1208 C.ar    1  UNL1        0.0015
     16 C         139.9411  143.4857  165.7231 C.ar    1  UNL1       -0.0003
     17 C         139.9745  143.9109  164.2851 C.ar    1  UNL1       -0.0042
     18 C         140.4458  141.7179  167.5589 C.ar    1  UNL1        0.0193
     19 C         140.7547  142.7091  168.6415 C.ar    1  UNL1        0.0055
     20 C         140.7213  142.2838  170.0796 C.ar    1  UNL1        0.0497
     21 C         140.3790  140.8672  170.4350 C.ar    1  UNL1        0.2223
     22 F         140.3457  140.4420  171.8731 F       1  UNL1       -0.1832
     23 N         140.0702  139.8760  169.3524 N.ar    1  UNL1       -0.2165
     24 C         140.1036  140.3013  167.9143 C.ar    1  UNL1        0.1012
     25 N         142.7980  144.9088  161.8625 N.3     1  UNL1       -0.1827
     26 H         143.4255  145.2439  161.1316 H       1  UNL1        0.1484
     27 S         143.6274  144.0815  162.7995 S.O2    1  UNL1        0.0390
     28 O         143.9737  143.1532  161.6733 O.2     1  UNL1       -0.1576
     29 O         143.2810  145.0098  163.9256 O.2     1  UNL1       -0.1576
     30 C         145.3362  142.1654  163.1973 C.3     1  UNL1        0.0270
     31 C         144.4568  143.2543  163.7365 C.3     1  UNL1        0.1457
     32 C         144.4066  143.5162  165.2126 C.3     1  UNL1        0.0270
@<TRIPOS>BOND
     1    30    31    1
     2    31    32    1
     3    31    27    1
     4    27    28    2
     5    27    29    2
     6    27    25    1
     7     1    25    1
     8     1     2    1
     9     2     3    1
    10     3     6    1
    11     6     7   ar
    12     7     8   ar
    13     8     9   ar
    14     9    10   ar
    15    10    11   ar
    16     3     4    1
    17     4     5    1
    18     5    12    1
    19    12    13   ar
    20    13    14   ar
    21    14    15   ar
    22    15    18    1
    23    18    19   ar
    24    19    20   ar
    25    20    21   ar
    26    21    22    1
    27    21    23   ar
    28    23    24   ar
    29    15    16   ar
    30    16    17   ar
    31     5     1    1
    32    17    12   ar
    33    11     6   ar
    34    24    18   ar
    35    25    26    1
@<TRIPOS>MOLECULE
*****
 32 35 0 0 0
SMALL
GASTEIGER

@<TRIPOS>ATOM
      1 C         138.7345  140.7180  160.7710 C.3     1  UNL1        0.1004
      2 C         138.9893  140.1283  159.4156 C.3     1  UNL1        0.1085
      3 N         140.1331  139.1654  159.5365 N.pl3   1  UNL1       -0.3057
      4 C         140.5852  139.1599  160.9667 C.3     1  UNL1        0.0966
      5 C         139.7208  140.1195  161.7297 C.3     1  UNL1        0.0598
      6 C         140.7214  138.3509  158.4227 C.ar    1  UNL1        0.0479
      7 C         139.8450  137.8596  157.3089 C.ar    1  UNL1        0.0145
      8 C         140.4334  137.0452  156.1952 C.ar    1  UNL1        0.0013
      9 C         141.8982  136.7221  156.1952 C.ar    1  UNL1        0.0001
     10 C         142.7746  137.2135  157.3089 C.ar    1  UNL1        0.0013
     11 C         142.1862  138.0279  158.4226 C.ar    1  UNL1        0.0145
     12 C         139.8245  140.4266  163.1943 C.ar    1  UNL1       -0.0194
     13 C         140.8340  141.4231  163.6820 C.ar    1  UNL1       -0.0042
     14 C         140.9377  141.7302  165.1466 C.ar    1  UNL1       -0.0003
     15 C         140.0320  141.0408  166.1234 C.ar    1  UNL1        0.0015
     16 C         139.0224  140.0442  165.6357 C.ar    1  UNL1       -0.0003
     17 C         138.9188  139.7372  164.1712 C.ar    1  UNL1       -0.0042
     18 C         140.1357  141.3479  167.5879 C.ar    1  UNL1        0.0193
     19 C         140.6125  142.6965  168.0395 C.ar    1  UNL1        0.0055
     20 C         140.7162  143.0036  169.5041 C.ar    1  UNL1        0.0497
     21 C         140.3431  141.9620  170.5171 C.ar    1  UNL1        0.2223
     22 F         140.4469  142.2692  171.9817 F       1  UNL1       -0.1832
     23 N         139.8664  140.6134  170.0655 N.ar    1  UNL1       -0.2165
     24 C         139.7627  140.3063  168.6009 C.ar    1  UNL1        0.1012
     25 N         137.6788  141.7287  161.1086 N.3     1  UNL1       -0.1827
     26 H         137.3779  142.1457  160.2277 H       1  UNL1        0.1484
     27 S         137.9957  142.8623  162.0384 S.O2    1  UNL1        0.0390
     28 O         138.9334  143.4369  161.0182 O.2     1  UNL1       -0.1576
     29 O         137.0581  142.2878  163.0585 O.2     1  UNL1       -0.1576
     30 C         139.0954  145.1758  162.4728 C.3     1  UNL1        0.0270
     31 C         138.3127  143.9960  162.9681 C.3     1  UNL1        0.1457
     32 C         137.8469  143.9497  164.3932 C.3     1  UNL1        0.0270
@<TRIPOS>BOND
     1    30    31    1
     2    31    32    1
     3    31    27    1
     4    27    28    2
     5    27    29    2
     6    27    25    1
     7     1    25    1
     8     1     2    1
     9     2     3    1
    10     3     6    1
    11     6     7   ar
    12     7     8   ar
    13     8     9   ar
    14     9    10   ar
    15    10    11   ar
    16     3     4    1
    17     4     5    1
    18     5    12    1
    19    12    13   ar
    20    13    14   ar
    21    14    15   ar
    22    15    18    1
    23    18    19   ar
    24    19    20   ar
    25    20    21   ar
    26    21    22    1
    27    21    23   ar
    28    23    24   ar
    29    15    16   ar
    30    16    17   ar
    31     5     1    1
    32    17    12   ar
    33    11     6   ar
    34    24    18   ar
    35    25    26    1
@<TRIPOS>MOLECULE
*****
 32 35 0 0 0
SMALL
GASTEIGER

@<TRIPOS>ATOM
      1 C         143.7016  139.5843  161.0967 C.3     1  UNL1        0.1004
      2 C         143.5652  139.1783  159.6592 C.3     1  UNL1        0.1085
      3 N         142.2529  138.4694  159.5002 N.pl3   1  UNL1       -0.3057
      4 C         141.5782  138.4372  160.8395 C.3     1  UNL1        0.0966
      5 C         142.4735  139.1262  161.8262 C.3     1  UNL1        0.0598
      6 C         141.7105  137.8937  158.2256 C.ar    1  UNL1        0.0479
      7 C         142.5891  137.0502  157.3501 C.ar    1  UNL1        0.0145
      8 C         142.0467  136.4745  156.0756 C.ar    1  UNL1        0.0013
      9 C         140.6258  136.7424  155.6766 C.ar    1  UNL1        0.0001
     10 C         139.7472  137.5858  156.5521 C.ar    1  UNL1        0.0013
     11 C         140.2896  138.1615  157.8266 C.ar    1  UNL1        0.0145
     12 C         142.1905  139.3228  163.2861 C.ar    1  UNL1       -0.0194
     13 C         142.9192  138.5020  164.3085 C.ar    1  UNL1       -0.0042
     14 C         142.6362  138.6985  165.7684 C.ar    1  UNL1       -0.0003
     15 C         141.6244  139.7158  166.2058 C.ar    1  UNL1        0.0015
     16 C         140.8956  140.5366  165.1834 C.ar    1  UNL1       -0.0003
     17 C         141.1787  140.3401  163.7236 C.ar    1  UNL1       -0.0042
     18 C         141.3414  139.9123  167.6657 C.ar    1  UNL1        0.0193
     19 C         139.9468  140.2199  168.1245 C.ar    1  UNL1        0.0055
     20 C         139.6638  140.4164  169.5844 C.ar    1  UNL1        0.0497
     21 C         140.7754  140.3054  170.5855 C.ar    1  UNL1        0.2223
     22 F         140.4924  140.5019  172.0454 F       1  UNL1       -0.1832
     23 N         142.1700  139.9978  170.1267 N.ar    1  UNL1       -0.2165
     24 C         142.4530  139.8012  168.6668 C.ar    1  UNL1        0.1012
     25 N         144.8622  140.3193  161.6990 N.3     1  UNL1       -0.1827
     26 H         145.3518  139.6554  162.2989 H       1  UNL1        0.1484
     27 S         144.6248  141.5517  162.5205 S.O2    1  UNL1        0.0390
     28 O         145.3658  140.9302  163.6671 O.2     1  UNL1       -0.1576
     29 O         143.8838  142.1731  161.3740 O.2     1  UNL1       -0.1576
     30 C         144.2551  144.1190  162.6706 C.3     1  UNL1        0.0270
     31 C         144.3873  142.7841  163.3419 C.3     1  UNL1        0.1457
     32 C         144.2822  142.6816  164.8348 C.3     1  UNL1        0.0270
@<TRIPOS>BOND
     1    30    31    1
     2    31    32    1
     3    31    27    1
     4    27    28    2
     5    27    29    2
     6    27    25    1
     7     1    25    1
     8     1     2    1
     9     2     3    1
    10     3     6    1
    11     6     7   ar
    12     7     8   ar
    13     8     9   ar
    14     9    10   ar
    15    10    11   ar
    16     3     4    1
    17     4     5    1
    18     5    12    1
    19    12    13   ar
    20    13    14   ar
    21    14    15   ar
    22    15    18    1
    23    18    19   ar
    24    19    20   ar
    25    20    21   ar
    26    21    22    1
    27    21    23   ar
    28    23    24   ar
    29    15    16   ar
    30    16    17   ar
    31     5     1    1
    32    17    12   ar
    33    11     6   ar
    34    24    18   ar
    35    25    26    1
@<TRIPOS>MOLECULE
*****
 32 35 0 0 0
SMALL
GASTEIGER

@<TRIPOS>ATOM
      1 C         138.9201  139.6963  160.3276 C.3     1  UNL1        0.1004
      2 C         138.6364  140.0758  158.9044 C.3     1  UNL1        0.1085
      3 N         138.4830  141.5667  158.8439 N.pl3   1  UNL1       -0.3057
      4 C         138.6719  142.1087  160.2298 C.3     1  UNL1        0.0966
      5 C         138.9420  140.9527  161.1467 C.3     1  UNL1        0.0598
      6 C         138.1919  142.3739  157.6136 C.ar    1  UNL1        0.0479
      7 C         139.1089  143.4924  157.2160 C.ar    1  UNL1        0.0145
      8 C         138.8177  144.2996  155.9858 C.ar    1  UNL1        0.0013
      9 C         137.6095  143.9883  155.1530 C.ar    1  UNL1        0.0001
     10 C         136.6926  142.8698  155.5506 C.ar    1  UNL1        0.0013
     11 C         136.9838  142.0626  156.7808 C.ar    1  UNL1        0.0145
     12 C         139.1905  141.0381  162.6236 C.ar    1  UNL1       -0.0194
     13 C         140.5360  141.4603  163.1346 C.ar    1  UNL1       -0.0042
     14 C         140.7845  141.5458  164.6114 C.ar    1  UNL1       -0.0003
     15 C         139.6873  141.2090  165.5771 C.ar    1  UNL1        0.0015
     16 C         138.3416  140.7867  165.0661 C.ar    1  UNL1       -0.0003
     17 C         138.0933  140.7013  163.5894 C.ar    1  UNL1       -0.0042
     18 C         139.9357  141.2944  167.0540 C.ar    1  UNL1        0.0193
     19 C         139.5497  140.1525  167.9467 C.ar    1  UNL1        0.0055
     20 C         139.7981  140.2380  169.4236 C.ar    1  UNL1        0.0497
     21 C         140.4326  141.4653  170.0076 C.ar    1  UNL1        0.2223
     22 F         140.6811  141.5508  171.4844 F       1  UNL1       -0.1832
     23 N         140.8187  142.6072  169.1148 N.ar    1  UNL1       -0.2165
     24 C         140.5703  142.5218  167.6380 C.ar    1  UNL1        0.1012
     25 N         139.1427  138.3047  160.8414 N.3     1  UNL1       -0.1827
     26 H         138.2822  138.0230  161.3110 H       1  UNL1        0.1484
     27 S         140.2670  138.0283  161.7952 S.O2    1  UNL1        0.0390
     28 O         141.2518  138.5235  160.7779 O.2     1  UNL1       -0.1576
     29 O         139.2821  137.5332  162.8125 O.2     1  UNL1       -0.1576
     30 C         142.8039  138.0653  162.3543 C.3     1  UNL1        0.0270
     31 C         141.3912  137.7520  162.7491 C.3     1  UNL1        0.1457
     32 C         141.1025  137.1622  164.0977 C.3     1  UNL1        0.0270
@<TRIPOS>BOND
     1    30    31    1
     2    31    32    1
     3    31    27    1
     4    27    28    2
     5    27    29    2
     6    27    25    1
     7     1    25    1
     8     1     2    1
     9     2     3    1
    10     3     6    1
    11     6     7   ar
    12     7     8   ar
    13     8     9   ar
    14     9    10   ar
    15    10    11   ar
    16     3     4    1
    17     4     5    1
    18     5    12    1
    19    12    13   ar
    20    13    14   ar
    21    14    15   ar
    22    15    18    1
    23    18    19   ar
    24    19    20   ar
    25    20    21   ar
    26    21    22    1
    27    21    23   ar
    28    23    24   ar
    29    15    16   ar
    30    16    17   ar
    31     5     1    1
    32    17    12   ar
    33    11     6   ar
    34    24    18   ar
    35    25    26    1
@<TRIPOS>MOLECULE
*****
 32 35 0 0 0
SMALL
GASTEIGER

@<TRIPOS>ATOM
      1 C         138.5668  142.2868  160.9585 C.3     1  UNL1        0.1004
      2 C         138.6003  142.6884  159.5136 C.3     1  UNL1        0.1085
      3 N         139.7637  143.6146  159.3167 N.pl3   1  UNL1       -0.3057
      4 C         140.4493  143.7854  160.6399 C.3     1  UNL1        0.0966
      5 C         139.7097  142.9648  161.6545 C.3     1  UNL1        0.0598
      6 C         140.1701  144.2571  158.0236 C.ar    1  UNL1        0.0479
      7 C         141.2301  145.3184  158.0141 C.ar    1  UNL1        0.0145
      8 C         141.6365  145.9608  156.7210 C.ar    1  UNL1        0.0013
      9 C         140.9829  145.5421  155.4375 C.ar    1  UNL1        0.0001
     10 C         139.9229  144.4808  155.4470 C.ar    1  UNL1        0.0013
     11 C         139.5165  143.8384  156.7401 C.ar    1  UNL1        0.0145
     12 C         140.0525  142.8435  163.1098 C.ar    1  UNL1       -0.0194
     13 C         139.3349  143.6861  164.1222 C.ar    1  UNL1       -0.0042
     14 C         139.6778  143.5647  165.5774 C.ar    1  UNL1       -0.0003
     15 C         140.7383  142.6008  166.0202 C.ar    1  UNL1        0.0015
     16 C         141.4560  141.7581  165.0077 C.ar    1  UNL1       -0.0003
     17 C         141.1130  141.8795  163.5526 C.ar    1  UNL1       -0.0042
     18 C         141.0812  142.4795  167.4754 C.ar    1  UNL1        0.0193
     19 C         140.2983  143.2496  168.4972 C.ar    1  UNL1        0.0055
     20 C         140.6412  143.1282  169.9524 C.ar    1  UNL1        0.0497
     21 C         141.7670  142.2367  170.3859 C.ar    1  UNL1        0.2223
     22 F         142.1099  142.1154  171.8412 F       1  UNL1       -0.1832
     23 N         142.5499  141.4666  169.3642 N.ar    1  UNL1       -0.2165
     24 C         142.2070  141.5879  167.9089 C.ar    1  UNL1        0.1012
     25 N         137.5663  141.3685  161.5954 N.3     1  UNL1       -0.1827
     26 H         136.9536  141.9510  162.1661 H       1  UNL1        0.1484
     27 S         138.0322  140.2429  162.4706 S.O2    1  UNL1        0.0390
     28 O         137.3662  140.8852  163.6512 O.2     1  UNL1       -0.1576
     29 O         138.6982  139.6006  161.2900 O.2     1  UNL1       -0.1576
     30 C         138.5638  139.3013  164.8329 C.3     1  UNL1        0.0270
     31 C         138.4981  139.1172  163.3458 C.3     1  UNL1        0.1457
     32 C         138.8982  137.8076  162.7336 C.3     1  UNL1        0.0270
@<TRIPOS>BOND
     1    30    31    1
     2    31    32    1
     3    31    27    1
     4    27    28    2
     5    27    29    2
     6    27    25    1
     7     1    25    1
     8     1     2    1
     9     2     3    1
    10     3     6    1
    11     6     7   ar
    12     7     8   ar
    13     8     9   ar
    14     9    10   ar
    15    10    11   ar
    16     3     4    1
    17     4     5    1
    18     5    12    1
    19    12    13   ar
    20    13    14   ar
    21    14    15   ar
    22    15    18    1
    23    18    19   ar
    24    19    20   ar
    25    20    21   ar
    26    21    22    1
    27    21    23   ar
    28    23    24   ar
    29    15    16   ar
    30    16    17   ar
    31     5     1    1
    32    17    12   ar
    33    11     6   ar
    34    24    18   ar
    35    25    26    1
@<TRIPOS>MOLECULE
*****
 32 35 0 0 0
SMALL
GASTEIGER

@<TRIPOS>ATOM
      1 C         139.1687  141.2291  165.0847 C.3     1  UNL1        0.1004
      2 C         139.5557  140.8165  166.4739 C.3     1  UNL1        0.1085
      3 N         140.9534  141.2982  166.7281 N.pl3   1  UNL1       -0.3057
      4 C         141.4302  142.0085  165.4960 C.3     1  UNL1        0.0966
      5 C         140.3272  141.9657  164.4803 C.3     1  UNL1        0.0598
      6 C         141.7367  141.1038  167.9926 C.ar    1  UNL1        0.0479
      7 C         141.5493  139.8581  168.8068 C.ar    1  UNL1        0.0145
      8 C         142.3326  139.6637  170.0711 C.ar    1  UNL1        0.0013
      9 C         143.3032  140.7150  170.5213 C.ar    1  UNL1        0.0001
     10 C         143.4905  141.9608  169.7071 C.ar    1  UNL1        0.0013
     11 C         142.7072  142.1551  168.4427 C.ar    1  UNL1        0.0145
     12 C         140.3745  142.5560  163.1021 C.ar    1  UNL1       -0.0194
     13 C         139.7632  143.9007  162.8407 C.ar    1  UNL1       -0.0042
     14 C         139.8105  144.4909  161.4626 C.ar    1  UNL1       -0.0003
     15 C         140.4689  143.7366  160.3458 C.ar    1  UNL1        0.0015
     16 C         141.0802  142.3919  160.6071 C.ar    1  UNL1       -0.0003
     17 C         141.0330  141.8017  161.9852 C.ar    1  UNL1       -0.0042
     18 C         140.5162  144.3269  158.9676 C.ar    1  UNL1        0.0193
     19 C         139.6471  143.7660  157.8813 C.ar    1  UNL1        0.0055
     20 C         139.6943  144.3563  156.5032 C.ar    1  UNL1        0.0497
     21 C         140.6107  145.5075  156.2113 C.ar    1  UNL1        0.2223
     22 F         140.6580  146.0978  154.8331 F       1  UNL1       -0.1832
     23 N         141.4798  146.0683  157.2976 N.ar    1  UNL1       -0.2165
     24 C         141.4326  145.4780  158.6758 C.ar    1  UNL1        0.1012
     25 N         137.8541  140.9534  164.4170 N.3     1  UNL1       -0.1827
     26 H         137.3202  140.3598  165.0519 H       1  UNL1        0.1484
     27 S         137.8205  140.2895  163.0723 S.O2    1  UNL1        0.0390
     28 O         137.1386  141.4942  162.4946 O.2     1  UNL1       -0.1576
     29 O         138.5023  139.0849  163.6501 O.2     1  UNL1       -0.1576
     30 C         137.7365  138.1296  161.6309 C.3     1  UNL1        0.0270
     31 C         137.7868  139.6256  161.7277 C.3     1  UNL1        0.1457
     32 C         137.8036  140.4578  160.4798 C.3     1  UNL1        0.0270
@<TRIPOS>BOND
     1    30    31    1
     2    31    32    1
     3    31    27    1
     4    27    28    2
     5    27    29    2
     6    27    25    1
     7     1    25    1
     8     1     2    1
     9     2     3    1
    10     3     6    1
    11     6     7   ar
    12     7     8   ar
    13     8     9   ar
    14     9    10   ar
    15    10    11   ar
    16     3     4    1
    17     4     5    1
    18     5    12    1
    19    12    13   ar
    20    13    14   ar
    21    14    15   ar
    22    15    18    1
    23    18    19   ar
    24    19    20   ar
    25    20    21   ar
    26    21    22    1
    27    21    23   ar
    28    23    24   ar
    29    15    16   ar
    30    16    17   ar
    31     5     1    1
    32    17    12   ar
    33    11     6   ar
    34    24    18   ar
    35    25    26    1
@<TRIPOS>MOLECULE
*****
 32 35 0 0 0
SMALL
GASTEIGER

@<TRIPOS>ATOM
      1 C         142.5911  138.5393  160.6953 C.3     1  UNL1        0.1004
      2 C         142.9521  138.6821  159.2464 C.3     1  UNL1        0.1085
      3 N         143.7055  139.9686  159.0810 N.pl3   1  UNL1       -0.3057
      4 C         143.8101  140.6209  160.4276 C.3     1  UNL1        0.0966
      5 C         143.1214  139.7376  161.4253 C.3     1  UNL1        0.0598
      6 C         144.2574  140.5080  157.7947 C.ar    1  UNL1        0.0479
      7 C         144.0044  139.7817  156.5069 C.ar    1  UNL1        0.0145
      8 C         144.5563  140.3211  155.2207 C.ar    1  UNL1        0.0013
      9 C         145.3612  141.5869  155.2223 C.ar    1  UNL1        0.0001
     10 C         145.6141  142.3133  156.5100 C.ar    1  UNL1        0.0013
     11 C         145.0622  141.7738  157.7962 C.ar    1  UNL1        0.0145
     12 C         142.9866  140.0055  162.8950 C.ar    1  UNL1       -0.0194
     13 C         143.8283  139.2449  163.8763 C.ar    1  UNL1       -0.0042
     14 C         143.6935  139.5128  165.3461 C.ar    1  UNL1       -0.0003
     15 C         142.7170  140.5413  165.8344 C.ar    1  UNL1        0.0015
     16 C         141.8753  141.3020  164.8531 C.ar    1  UNL1       -0.0003
     17 C         142.0101  141.0340  163.3835 C.ar    1  UNL1       -0.0042
     18 C         142.5822  140.8092  167.3041 C.ar    1  UNL1        0.0193
     19 C         142.5067  142.2210  167.8053 C.ar    1  UNL1        0.0055
     20 C         142.3719  142.4889  169.2751 C.ar    1  UNL1        0.0497
     21 C         142.3126  141.3449  170.2436 C.ar    1  UNL1        0.2223
     22 F         142.1778  141.6128  171.7133 F       1  UNL1       -0.1832
     23 N         142.3881  139.9332  169.7424 N.ar    1  UNL1       -0.2165
     24 C         142.5229  139.6653  168.2727 C.ar    1  UNL1        0.1012
     25 N         141.8329  137.3986  161.3067 N.3     1  UNL1       -0.1827
     26 H         141.5827  136.7690  160.5442 H       1  UNL1        0.1484
     27 S         140.5754  137.6629  162.0805 S.O2    1  UNL1        0.0390
     28 O         141.1453  136.9283  163.2576 O.2     1  UNL1       -0.1576
     29 O         140.0055  138.3974  160.9034 O.2     1  UNL1       -0.1576
     30 C         138.0538  138.2868  162.1311 C.3     1  UNL1        0.0270
     31 C         139.3178  137.9273  162.8543 C.3     1  UNL1        0.1457
     32 C         139.3244  137.8320  164.3512 C.3     1  UNL1        0.0270
@<TRIPOS>BOND
     1    30    31    1
     2    31    32    1
     3    31    27    1
     4    27    28    2
     5    27    29    2
     6    27    25    1
     7     1    25    1
     8     1     2    1
     9     2     3    1
    10     3     6    1
    11     6     7   ar
    12     7     8   ar
    13     8     9   ar
    14     9    10   ar
    15    10    11   ar
    16     3     4    1
    17     4     5    1
    18     5    12    1
    19    12    13   ar
    20    13    14   ar
    21    14    15   ar
    22    15    18    1
    23    18    19   ar
    24    19    20   ar
    25    20    21   ar
    26    21    22    1
    27    21    23   ar
    28    23    24   ar
    29    15    16   ar
    30    16    17   ar
    31     5     1    1
    32    17    12   ar
    33    11     6   ar
    34    24    18   ar
    35    25    26    1
@<TRIPOS>MOLECULE
*****
 32 35 0 0 0
SMALL
GASTEIGER

@<TRIPOS>ATOM
      1 C         140.0426  139.3667  164.4851 C.3     1  UNL1        0.1004
      2 C         139.5819  139.6110  165.8916 C.3     1  UNL1        0.1085
      3 N         140.3245  140.8013  166.4225 N.pl3   1  UNL1       -0.3057
      4 C         141.2442  141.2926  165.3442 C.3     1  UNL1        0.0966
      5 C         141.0700  140.4061  164.1468 C.3     1  UNL1        0.0598
      6 C         140.1738  141.3958  167.7914 C.ar    1  UNL1        0.0479
      7 C         139.6331  140.5628  168.9155 C.ar    1  UNL1        0.0145
      8 C         139.4825  141.1573  170.2843 C.ar    1  UNL1        0.0013
      9 C         139.8726  142.5849  170.5291 C.ar    1  UNL1        0.0001
     10 C         140.4133  143.4179  169.4050 C.ar    1  UNL1        0.0013
     11 C         140.5639  142.8234  168.0362 C.ar    1  UNL1        0.0145
     12 C         141.7957  140.5360  162.8405 C.ar    1  UNL1       -0.0194
     13 C         141.3391  141.5418  161.8257 C.ar    1  UNL1       -0.0042
     14 C         142.0648  141.6717  160.5193 C.ar    1  UNL1       -0.0003
     15 C         143.2471  140.7958  160.2279 C.ar    1  UNL1        0.0015
     16 C         143.7038  139.7900  161.2428 C.ar    1  UNL1       -0.0003
     17 C         142.9780  139.6601  162.5490 C.ar    1  UNL1       -0.0042
     18 C         143.9728  140.9257  158.9216 C.ar    1  UNL1        0.0193
     19 C         144.7429  142.1753  158.6125 C.ar    1  UNL1        0.0055
     20 C         145.4687  142.3052  157.3062 C.ar    1  UNL1        0.0497
     21 C         145.4243  141.1855  156.3089 C.ar    1  UNL1        0.2223
     22 F         146.1500  141.3154  155.0026 F       1  UNL1       -0.1832
     23 N         144.6541  139.9359  156.6180 N.ar    1  UNL1       -0.2165
     24 C         143.9284  139.8060  157.9243 C.ar    1  UNL1        0.1012
     25 N         139.5606  138.2749  163.5765 N.3     1  UNL1       -0.1827
     26 H         140.3199  137.5980  163.5011 H       1  UNL1        0.1484
     27 S         139.1293  138.5995  162.1770 S.O2    1  UNL1        0.0390
     28 O         138.0511  139.4921  162.7164 O.2     1  UNL1       -0.1576
     29 O         140.2074  137.7070  161.6377 O.2     1  UNL1       -0.1576
     30 C         139.5587  138.5250  159.6158 C.3     1  UNL1        0.0270
     31 C         138.6979  138.9242  160.7775 C.3     1  UNL1        0.1457
     32 C         137.4058  139.6479  160.5399 C.3     1  UNL1        0.0270
@<TRIPOS>BOND
     1    30    31    1
     2    31    32    1
     3    31    27    1
     4    27    28    2
     5    27    29    2
     6    27    25    1
     7     1    25    1
     8     1     2    1
     9     2     3    1
    10     3     6    1
    11     6     7   ar
    12     7     8   ar
    13     8     9   ar
    14     9    10   ar
    15    10    11   ar
    16     3     4    1
    17     4     5    1
    18     5    12    1
    19    12    13   ar
    20    13    14   ar
    21    14    15   ar
    22    15    18    1
    23    18    19   ar
    24    19    20   ar
    25    20    21   ar
    26    21    22    1
    27    21    23   ar
    28    23    24   ar
    29    15    16   ar
    30    16    17   ar
    31     5     1    1
    32    17    12   ar
    33    11     6   ar
    34    24    18   ar
    35    25    26    1
@<TRIPOS>MOLECULE
*****
 32 35 0 0 0
SMALL
GASTEIGER

@<TRIPOS>ATOM
      1 C         139.8040  142.8722  164.1863 C.3     1  UNL1        0.1004
      2 C         140.0192  143.3480  165.5924 C.3     1  UNL1        0.1085
      3 N         141.0257  142.4432  166.2391 N.pl3   1  UNL1       -0.3057
      4 C         141.4326  141.4081  165.2326 C.3     1  UNL1        0.0966
      5 C         140.6776  141.6732  163.9639 C.3     1  UNL1        0.0598
      6 C         141.5357  142.5540  167.6454 C.ar    1  UNL1        0.0479
      7 C         140.6234  143.0244  168.7392 C.ar    1  UNL1        0.0145
      8 C         141.1334  143.1352  170.1455 C.ar    1  UNL1        0.0013
      9 C         142.5558  142.7756  170.4579 C.ar    1  UNL1        0.0001
     10 C         143.4681  142.3053  169.3641 C.ar    1  UNL1        0.0013
     11 C         142.9581  142.1945  167.9579 C.ar    1  UNL1        0.0145
     12 C         140.7785  140.8789  162.6955 C.ar    1  UNL1       -0.0194
     13 C         139.6742  139.9404  162.3085 C.ar    1  UNL1       -0.0042
     14 C         139.7751  139.1460  161.0401 C.ar    1  UNL1       -0.0003
     15 C         140.9802  139.2902  160.1587 C.ar    1  UNL1        0.0015
     16 C         142.0846  140.2288  160.5458 C.ar    1  UNL1       -0.0003
     17 C         141.9836  141.0230  161.8141 C.ar    1  UNL1       -0.0042
     18 C         141.0811  138.4959  158.8903 C.ar    1  UNL1        0.0193
     19 C         139.8685  138.3007  158.0292 C.ar    1  UNL1        0.0055
     20 C         139.9694  137.5063  156.7608 C.ar    1  UNL1        0.0497
     21 C         141.2829  136.9072  156.3535 C.ar    1  UNL1        0.2223
     22 F         141.3838  136.1128  155.0851 F       1  UNL1       -0.1832
     23 N         142.4955  137.1024  157.2146 N.ar    1  UNL1       -0.2165
     24 C         142.3946  137.8967  158.4831 C.ar    1  UNL1        0.1012
     25 N         138.8779  143.4873  163.1793 N.3     1  UNL1       -0.1827
     26 H         138.0825  142.8556  163.0864 H       1  UNL1        0.1484
     27 S         139.3655  143.7768  161.7906 S.O2    1  UNL1        0.0390
     28 O         138.2030  143.0167  161.2240 O.2     1  UNL1       -0.1576
     29 O         140.5278  144.5369  162.3571 O.2     1  UNL1       -0.1576
     30 C         139.8171  142.9925  159.3552 C.3     1  UNL1        0.0270
     31 C         139.8530  144.0664  160.4019 C.3     1  UNL1        0.1457
     32 C         140.3764  145.4299  160.0599 C.3     1  UNL1        0.0270
@<TRIPOS>BOND
     1    30    31    1
     2    31    32    1
     3    31    27    1
     4    27    28    2
     5    27    29    2
     6    27    25    1
     7     1    25    1
     8     1     2    1
     9     2     3    1
    10     3     6    1
    11     6     7   ar
    12     7     8   ar
    13     8     9   ar
    14     9    10   ar
    15    10    11   ar
    16     3     4    1
    17     4     5    1
    18     5    12    1
    19    12    13   ar
    20    13    14   ar
    21    14    15   ar
    22    15    18    1
    23    18    19   ar
    24    19    20   ar
    25    20    21   ar
    26    21    22    1
    27    21    23   ar
    28    23    24   ar
    29    15    16   ar
    30    16    17   ar
    31     5     1    1
    32    17    12   ar
    33    11     6   ar
    34    24    18   ar
    35    25    26    1
