@<TRIPOS>MOLECULE
*****
 12 13 0 0 0
SMALL
GASTEIGER

@<TRIPOS>ATOM
      1 CA        139.9637  141.1062  169.3741 C.ar    1  UNL1        0.0713
      2 C         140.3528  141.4957  167.9787 C.ar    1  UNL1        0.0260
      3 C         139.6267  140.5931  167.0258 C.ar    1  UNL1        0.0465
      4 S         139.4185  140.2760  165.5746 S.2     1  UNL1       -0.0849
      5 C         138.4519  139.1326  165.4841 C.ar    1  UNL1        0.0370
      6 C         138.0627  138.7430  166.8793 C.ar    1  UNL1        0.0244
      7 C         138.7888  139.6457  167.8322 C.ar    1  UNL1        0.0632
      8 N         138.9970  139.9627  169.2835 N.ar    1  UNL1       -0.3518
      9 H         138.5736  139.5014  170.0431 H       1  UNL1        0.1660
     10 O         140.6131  140.9263  171.8831 O.co2   1  UNL1       -0.5431
     11 C         140.4549  141.7474  170.6379 C.2     1  UNL1        0.0884
     12 OXT       140.7879  143.2099  170.6566 O.co2   1  UNL1       -0.5431
@<TRIPOS>UNITY_ATOM_ATTR
10 1
charge -1
@<TRIPOS>BOND
     1    10    11   ar
     2    11    12   ar
     3    11     1    1
     4     1     2   ar
     5     2     3   ar
     6     3     4   ar
     7     4     5   ar
     8     5     6   ar
     9     6     7   ar
    10     7     8   ar
    11     8     1   ar
    12     7     3   ar
    13     8     9    1
@<TRIPOS>MOLECULE
*****
 12 13 0 0 0
SMALL
GASTEIGER

@<TRIPOS>ATOM
      1 CA        138.1838  138.8017  165.8732 C.ar    1  UNL1        0.0713
      2 C         138.8584  137.7680  165.0209 C.ar    1  UNL1        0.0260
      3 C         139.0199  138.3371  163.6425 C.ar    1  UNL1        0.0465
      4 S         139.5366  138.0499  162.2639 S.2     1  UNL1       -0.0849
      5 C         139.2812  139.2580  161.4122 C.ar    1  UNL1        0.0370
      6 C         138.6066  140.2918  162.2645 C.ar    1  UNL1        0.0244
      7 C         138.4451  139.7226  163.6429 C.ar    1  UNL1        0.0632
      8 N         137.9284  140.0098  165.0215 N.ar    1  UNL1       -0.3518
      9 H         137.4973  140.8446  165.3156 H       1  UNL1        0.1660
     10 O         138.5950  139.4109  168.3651 O.co2   1  UNL1       -0.5431
     11 C         137.8273  138.6534  167.3226 C.2     1  UNL1        0.0884
     12 OXT       136.7030  137.7476  167.7296 O.co2   1  UNL1       -0.5431
@<TRIPOS>UNITY_ATOM_ATTR
10 1
charge -1
@<TRIPOS>BOND
     1    10    11   ar
     2    11    12   ar
     3    11     1    1
     4     1     2   ar
     5     2     3   ar
     6     3     4   ar
     7     4     5   ar
     8     5     6   ar
     9     6     7   ar
    10     7     8   ar
    11     8     1   ar
    12     7     3   ar
    13     8     9    1
@<TRIPOS>MOLECULE
*****
 12 13 0 0 0
SMALL
GASTEIGER

@<TRIPOS>ATOM
      1 CA        140.3725  144.9429  162.9773 C.ar    1  UNL1        0.0713
      2 C         140.6157  143.5919  163.5822 C.ar    1  UNL1        0.0260
      3 C         142.0029  143.5823  164.1527 C.ar    1  UNL1        0.0465
      4 S         143.0105  142.7413  164.8791 S.2     1  UNL1       -0.0849
      5 C         144.2475  143.5667  165.0758 C.ar    1  UNL1        0.0370
      6 C         144.0044  144.9176  164.4709 C.ar    1  UNL1        0.0244
      7 C         142.6172  144.9273  163.9004 C.ar    1  UNL1        0.0632
      8 N         141.6096  145.7682  163.1741 N.ar    1  UNL1       -0.3518
      9 H         141.7377  146.6985  162.8783 H       1  UNL1        0.1660
     10 O         137.8091  144.7229  162.6169 O.co2   1  UNL1       -0.5431
     11 C         139.1136  145.3900  162.2956 C.2     1  UNL1        0.0884
     12 OXT       139.1590  146.5044  161.2924 O.co2   1  UNL1       -0.5431
@<TRIPOS>UNITY_ATOM_ATTR
10 1
charge -1
@<TRIPOS>BOND
     1    10    11   ar
     2    11    12   ar
     3    11     1    1
     4     1     2   ar
     5     2     3   ar
     6     3     4   ar
     7     4     5   ar
     8     5     6   ar
     9     6     7   ar
    10     7     8   ar
    11     8     1   ar
    12     7     3   ar
    13     8     9    1
@<TRIPOS>MOLECULE
*****
 12 13 0 0 0
SMALL
GASTEIGER

@<TRIPOS>ATOM
      1 CA        138.0214  141.6905  163.2350 C.ar    1  UNL1        0.0713
      2 C         138.5536  140.4497  162.5814 C.ar    1  UNL1        0.0260
      3 C         138.6489  139.3790  163.6276 C.ar    1  UNL1        0.0465
      4 S         139.0368  137.9504  163.8701 S.2     1  UNL1       -0.0849
      5 C         138.8032  137.6466  165.3203 C.ar    1  UNL1        0.0370
      6 C         138.2710  138.8874  165.9741 C.ar    1  UNL1        0.0244
      7 C         138.1757  139.9580  164.9278 C.ar    1  UNL1        0.0632
      8 N         137.7878  141.3866  164.6853 N.ar    1  UNL1       -0.3518
      9 H         137.4409  142.0145  165.3595 H       1  UNL1        0.1660
     10 O         137.7197  143.0792  161.0601 O.co2   1  UNL1       -0.5431
     11 C         137.7674  143.0043  162.5575 C.2     1  UNL1        0.0884
     12 OXT       137.5610  144.2435  163.3773 O.co2   1  UNL1       -0.5431
@<TRIPOS>UNITY_ATOM_ATTR
10 1
charge -1
@<TRIPOS>BOND
     1    10    11   ar
     2    11    12   ar
     3    11     1    1
     4     1     2   ar
     5     2     3   ar
     6     3     4   ar
     7     4     5   ar
     8     5     6   ar
     9     6     7   ar
    10     7     8   ar
    11     8     1   ar
    12     7     3   ar
    13     8     9    1
@<TRIPOS>MOLECULE
*****
 12 13 0 0 0
SMALL
GASTEIGER

@<TRIPOS>ATOM
      1 CA        138.3843  140.2187  165.4276 C.ar    1  UNL1        0.0713
      2 C         139.4626  141.1543  165.8879 C.ar    1  UNL1        0.0260
      3 C         139.2458  142.4779  165.2162 C.ar    1  UNL1        0.0465
      4 S         139.7783  143.8741  165.0856 S.2     1  UNL1       -0.0849
      5 C         138.8950  144.6194  164.1293 C.ar    1  UNL1        0.0370
      6 C         137.8167  143.6838  163.6690 C.ar    1  UNL1        0.0244
      7 C         138.0335  142.3602  164.3407 C.ar    1  UNL1        0.0632
      8 N         137.5010  140.9640  164.4714 N.ar    1  UNL1       -0.3518
      9 H         136.7106  140.6006  164.0104 H       1  UNL1        0.1660
     10 O         138.9749  137.7050  165.1403 O.co2   1  UNL1       -0.5431
     11 C         138.2184  138.7889  165.8495 C.2     1  UNL1        0.0884
     12 OXT       137.2958  138.4428  166.9805 O.co2   1  UNL1       -0.5431
@<TRIPOS>UNITY_ATOM_ATTR
10 1
charge -1
@<TRIPOS>BOND
     1    10    11   ar
     2    11    12   ar
     3    11     1    1
     4     1     2   ar
     5     2     3   ar
     6     3     4   ar
     7     4     5   ar
     8     5     6   ar
     9     6     7   ar
    10     7     8   ar
    11     8     1   ar
    12     7     3   ar
    13     8     9    1
@<TRIPOS>MOLECULE
*****
 12 13 0 0 0
SMALL
GASTEIGER

@<TRIPOS>ATOM
      1 CA        154.5641  134.2418  163.9660 C.ar    1  UNL1        0.0713
      2 C         154.5591  133.2412  165.0835 C.ar    1  UNL1        0.0260
      3 C         154.7666  131.8802  164.4880 C.ar    1  UNL1        0.0465
      4 S         154.8918  130.4207  164.8107 S.2     1  UNL1       -0.0849
      5 C         155.1025  129.6781  163.5245 C.ar    1  UNL1        0.0370
      6 C         155.1075  130.6787  162.4070 C.ar    1  UNL1        0.0244
      7 C         154.8999  132.0397  163.0025 C.ar    1  UNL1        0.0632
      8 N         154.7748  133.4992  162.6798 N.ar    1  UNL1       -0.3518
      9 H         154.8225  133.8994  161.7816 H       1  UNL1        0.1660
     10 O         154.9972  136.4420  165.2780 O.co2   1  UNL1       -0.5431
     11 C         154.3892  135.7246  164.1094 C.2     1  UNL1        0.0884
     12 OXT       153.6061  136.4901  163.0842 O.co2   1  UNL1       -0.5431
@<TRIPOS>UNITY_ATOM_ATTR
10 1
charge -1
@<TRIPOS>BOND
     1    10    11   ar
     2    11    12   ar
     3    11     1    1
     4     1     2   ar
     5     2     3   ar
     6     3     4   ar
     7     4     5   ar
     8     5     6   ar
     9     6     7   ar
    10     7     8   ar
    11     8     1   ar
    12     7     3   ar
    13     8     9    1
@<TRIPOS>MOLECULE
*****
 12 13 0 0 0
SMALL
GASTEIGER

@<TRIPOS>ATOM
      1 CA        154.5259  134.2238  164.0217 C.ar    1  UNL1        0.0713
      2 C         154.6220  133.4702  162.7283 C.ar    1  UNL1        0.0260
      3 C         154.7551  132.0113  163.0507 C.ar    1  UNL1        0.0465
      4 S         154.8966  130.6439  162.4505 S.2     1  UNL1       -0.0849
      5 C         154.9703  129.6507  163.5722 C.ar    1  UNL1        0.0370
      6 C         154.8742  130.4043  164.8656 C.ar    1  UNL1        0.0244
      7 C         154.7412  131.8632  164.5433 C.ar    1  UNL1        0.0632
      8 N         154.5996  133.2306  165.1435 N.ar    1  UNL1       -0.3518
      9 H         154.5616  133.4395  166.1048 H       1  UNL1        0.1660
     10 O         153.6228  136.4942  163.1389 O.co2   1  UNL1       -0.5431
     11 C         154.3816  135.7096  164.1678 C.2     1  UNL1        0.0884
     12 OXT       154.9960  136.4110  165.3428 O.co2   1  UNL1       -0.5431
@<TRIPOS>UNITY_ATOM_ATTR
10 1
charge -1
@<TRIPOS>BOND
     1    10    11   ar
     2    11    12   ar
     3    11     1    1
     4     1     2   ar
     5     2     3   ar
     6     3     4   ar
     7     4     5   ar
     8     5     6   ar
     9     6     7   ar
    10     7     8   ar
    11     8     1   ar
    12     7     3   ar
    13     8     9    1
@<TRIPOS>MOLECULE
*****
 12 13 0 0 0
SMALL
GASTEIGER

@<TRIPOS>ATOM
      1 CA        140.9450  142.0239  169.4672 C.ar    1  UNL1        0.0713
      2 C         140.7819  142.3487  168.0119 C.ar    1  UNL1        0.0260
      3 C         141.4834  141.2865  167.2184 C.ar    1  UNL1        0.0465
      4 S         141.8162  140.8308  165.8286 S.2     1  UNL1       -0.0849
      5 C         142.6185  139.5678  165.9345 C.ar    1  UNL1        0.0370
      6 C         142.7816  139.2429  167.3898 C.ar    1  UNL1        0.0244
      7 C         142.0801  140.3051  168.1833 C.ar    1  UNL1        0.0632
      8 N         141.7473  140.7608  169.5731 N.ar    1  UNL1       -0.3518
      9 H         142.0095  140.3101  170.4082 H       1  UNL1        0.1660
     10 O         139.8864  144.2118  170.3849 O.co2   1  UNL1       -0.5431
     11 C         140.4013  142.8218  170.6150 C.2     1  UNL1        0.0884
     12 OXT       140.3723  142.2299  171.9930 O.co2   1  UNL1       -0.5431
@<TRIPOS>UNITY_ATOM_ATTR
10 1
charge -1
@<TRIPOS>BOND
     1    10    11   ar
     2    11    12   ar
     3    11     1    1
     4     1     2   ar
     5     2     3   ar
     6     3     4   ar
     7     4     5   ar
     8     5     6   ar
     9     6     7   ar
    10     7     8   ar
    11     8     1   ar
    12     7     3   ar
    13     8     9    1
@<TRIPOS>MOLECULE
*****
 12 13 0 0 0
SMALL
GASTEIGER

@<TRIPOS>ATOM
      1 CA        140.9573  141.4920  169.4806 C.ar    1  UNL1        0.0713
      2 C         142.3839  141.5439  169.0198 C.ar    1  UNL1        0.0260
      3 C         142.3941  142.0121  167.5948 C.ar    1  UNL1        0.0465
      4 S         143.2821  142.3335  166.4293 S.2     1  UNL1       -0.0849
      5 C         142.4105  142.7695  165.2890 C.ar    1  UNL1        0.0370
      6 C         140.9840  142.7176  165.7497 C.ar    1  UNL1        0.0244
      7 C         140.9738  142.2495  167.1747 C.ar    1  UNL1        0.0632
      8 N         140.0858  141.9281  168.3402 N.ar    1  UNL1       -0.3518
      9 H         139.1035  141.9921  168.3542 H       1  UNL1        0.1660
     10 O         140.7158  141.9744  172.0219 O.co2   1  UNL1       -0.5431
     11 C         140.4852  141.0770  170.8424 C.2     1  UNL1        0.0884
     12 OXT       139.7823  139.7644  171.0248 O.co2   1  UNL1       -0.5431
@<TRIPOS>UNITY_ATOM_ATTR
10 1
charge -1
@<TRIPOS>BOND
     1    10    11   ar
     2    11    12   ar
     3    11     1    1
     4     1     2   ar
     5     2     3   ar
     6     3     4   ar
     7     4     5   ar
     8     5     6   ar
     9     6     7   ar
    10     7     8   ar
    11     8     1   ar
    12     7     3   ar
    13     8     9    1
