@<TRIPOS>MOLECULE
*****
 37 41 0 0 0
SMALL
GASTEIGER

@<TRIPOS>ATOM
      1 C         145.6030  141.8145  163.3058 C.3     1  UNL1        0.0553
      2 C         144.7704  141.6671  162.0668 C.ar    1  UNL1        0.0935
      3 N         144.7584  140.4811  161.1485 N.ar    1  UNL1       -0.1727
      4 N         143.7842  140.7609  160.0426 N.ar    1  UNL1       -0.2558
      5 C         143.1942  142.1198  160.2775 C.ar    1  UNL1        0.0704
      6 C         142.1738  142.7993  159.4133 C.3     1  UNL1        0.0531
      7 C         143.8036  142.6799  161.5285 C.ar    1  UNL1        0.0792
      8 C         143.4575  139.8430  158.9022 C.3     1  UNL1        0.1083
      9 C         142.6962  138.5754  159.1542 C.3     1  UNL1        0.0459
     10 C         142.3694  137.6573  158.0138 C.3     1  UNL1        0.0955
     11 N         142.8041  138.0071  156.6214 N.am    1  UNL1       -0.2775
     12 C         142.4773  137.0890  155.4809 C.2     1  UNL1        0.2525
     13 O         142.9120  137.4387  154.0885 O.2     1  UNL1       -0.2723
     14 C         143.5655  139.2747  156.3694 C.3     1  UNL1        0.0955
     15 C         143.8921  140.1926  157.5099 C.3     1  UNL1        0.0459
     16 C         141.7160  135.8214  155.7329 C.3     1  UNL1        0.1869
     17 C         142.4546  134.5403  155.9839 C.3     1  UNL1        0.0417
     18 O         140.2160  135.8350  155.7339 O.3     1  UNL1       -0.3758
     19 H         139.8847  134.9408  155.9112 H       1  UNL1        0.2110
     20 N         143.4998  144.0178  162.1348 N.pl3   1  UNL1       -0.2806
     21 H         144.1148  144.7734  161.9934 H       1  UNL1        0.1551
     22 C         142.2589  144.2045  162.9566 C.ar    1  UNL1        0.2208
     23 N         141.2798  145.2841  162.6020 N.ar    1  UNL1       -0.2111
     24 C         140.0389  145.4708  163.4237 C.ar    1  UNL1        0.1147
     25 C         139.7771  144.5778  164.6002 C.ar    1  UNL1        0.0946
     26 CL        138.5362  144.7644  165.4220 Cl      1  UNL1       -0.0790
     27 C         140.7562  143.4981  164.9549 C.ar    1  UNL1        0.0992
     28 N         141.9970  143.3115  164.1331 N.ar    1  UNL1       -0.2126
     29 C         140.4944  142.6051  166.1313 C.ar    1  UNL1        0.0572
     30 C         141.0342  142.7929  167.5182 C.ar    1  UNL1        0.1235
     31 N         140.5202  141.6714  168.3714 N.ar    1  UNL1       -0.1634
     32 N         139.6628  140.7905  167.5119 N.ar    1  UNL1       -0.2281
     33 C         138.8945  139.5374  167.8110 C.ar    1  UNL1        0.1004
     34 C         138.1103  138.8614  166.7257 C.ar    1  UNL1        0.0207
     35 C         138.0943  139.4385  165.3412 C.ar    1  UNL1        0.0031
     36 C         138.8626  140.6915  165.0421 C.ar    1  UNL1        0.0193
     37 C         139.6468  141.3675  166.1274 C.ar    1  UNL1        0.0858
@<TRIPOS>BOND
     1     1     2    1
     2     2     3   ar
     3     3     4   ar
     4     4     8    1
     5     8     9    1
     6     9    10    1
     7    10    11    1
     8    11    12   am
     9    12    13    2
    10    12    16    1
    11    16    17    1
    12    16    18    1
    13    11    14    1
    14    14    15    1
    15     4     5   ar
    16     5     6    1
    17     5     7   ar
    18     7    20    1
    19    20    22    1
    20    22    23   ar
    21    23    24   ar
    22    24    25   ar
    23    25    26    1
    24    25    27   ar
    25    27    29    1
    26    29    30   ar
    27    30    31   ar
    28    31    32   ar
    29    32    33   ar
    30    33    34   ar
    31    34    35   ar
    32    35    36   ar
    33    36    37   ar
    34    27    28   ar
    35     7     2   ar
    36    28    22   ar
    37    15     8    1
    38    37    29   ar
    39    37    32   ar
    40    18    19    1
    41    20    21    1
@<TRIPOS>MOLECULE
*****
 37 41 0 0 0
SMALL
GASTEIGER

@<TRIPOS>ATOM
      1 C         143.1708  145.2684  164.0643 C.3     1  UNL1        0.0553
      2 C         142.9192  144.6528  162.7199 C.ar    1  UNL1        0.0935
      3 N         141.8752  145.0854  161.7335 N.ar    1  UNL1       -0.1727
      4 N         141.9782  144.1964  160.5296 N.ar    1  UNL1       -0.2558
      5 C         143.0858  143.2144  160.7719 C.ar    1  UNL1        0.0704
      6 C         143.5333  142.1392  159.8267 C.3     1  UNL1        0.0531
      7 C         143.6674  143.4964  162.1256 C.ar    1  UNL1        0.0792
      8 C         141.1236  144.2756  159.2994 C.3     1  UNL1        0.1083
      9 C         140.0913  143.2202  159.0341 C.3     1  UNL1        0.0459
     10 C         139.2366  143.2993  157.8039 C.3     1  UNL1        0.0955
     11 N         139.4144  144.4340  156.8390 N.am    1  UNL1       -0.2775
     12 C         138.5598  144.5131  155.6088 C.2     1  UNL1        0.2525
     13 O         138.7375  145.6477  154.6438 O.2     1  UNL1       -0.2723
     14 C         140.4467  145.4894  157.1043 C.3     1  UNL1        0.0955
     15 C         141.3013  145.4102  158.3345 C.3     1  UNL1        0.0459
     16 C         137.5275  143.4577  155.3435 C.3     1  UNL1        0.1869
     17 C         137.8443  142.3118  154.4290 C.3     1  UNL1        0.0417
     18 O         136.1783  143.5482  155.9928 O.3     1  UNL1       -0.3758
     19 H         135.6356  142.7928  155.7174 H       1  UNL1        0.2110
     20 N         144.7985  142.7527  162.7716 N.pl3   1  UNL1       -0.2806
     21 H         145.7279  143.0372  162.6148 H       1  UNL1        0.1551
     22 C         144.5138  141.5755  163.6566 C.ar    1  UNL1        0.2208
     23 N         145.3966  140.3642  163.6005 N.ar    1  UNL1       -0.2111
     24 C         145.1119  139.1870  164.4854 C.ar    1  UNL1        0.1147
     25 C         143.9443  139.2211  165.4264 C.ar    1  UNL1        0.0946
     26 CL        143.6595  138.0440  166.3114 Cl      1  UNL1       -0.0790
     27 C         143.0613  140.4326  165.4825 C.ar    1  UNL1        0.0992
     28 N         143.3461  141.6097  164.5976 N.ar    1  UNL1       -0.2126
     29 C         141.8937  140.4667  166.4235 C.ar    1  UNL1        0.0572
     30 C         141.7903  141.2937  167.6706 C.ar    1  UNL1        0.1235
     31 N         140.4571  141.0179  168.3004 N.ar    1  UNL1       -0.1634
     32 N         139.7366  140.0205  167.4425 N.ar    1  UNL1       -0.2281
     33 C         138.3868  139.3785  167.5677 C.ar    1  UNL1        0.1004
     34 C         137.9248  138.3958  166.5330 C.ar    1  UNL1        0.0207
     35 C         138.8127  138.0551  165.3729 C.ar    1  UNL1        0.0031
     36 C         140.1625  138.6971  165.2477 C.ar    1  UNL1        0.0193
     37 C         140.6244  139.6798  166.2825 C.ar    1  UNL1        0.0858
@<TRIPOS>BOND
     1     1     2    1
     2     2     3   ar
     3     3     4   ar
     4     4     8    1
     5     8     9    1
     6     9    10    1
     7    10    11    1
     8    11    12   am
     9    12    13    2
    10    12    16    1
    11    16    17    1
    12    16    18    1
    13    11    14    1
    14    14    15    1
    15     4     5   ar
    16     5     6    1
    17     5     7   ar
    18     7    20    1
    19    20    22    1
    20    22    23   ar
    21    23    24   ar
    22    24    25   ar
    23    25    26    1
    24    25    27   ar
    25    27    29    1
    26    29    30   ar
    27    30    31   ar
    28    31    32   ar
    29    32    33   ar
    30    33    34   ar
    31    34    35   ar
    32    35    36   ar
    33    36    37   ar
    34    27    28   ar
    35     7     2   ar
    36    28    22   ar
    37    15     8    1
    38    37    29   ar
    39    37    32   ar
    40    18    19    1
    41    20    21    1
@<TRIPOS>MOLECULE
*****
 37 41 0 0 0
SMALL
GASTEIGER

@<TRIPOS>ATOM
      1 C         140.1902  137.9912  161.5447 C.3     1  UNL1        0.0553
      2 C         141.0702  138.5039  162.6459 C.ar    1  UNL1        0.0935
      3 N         140.6089  139.2072  163.8879 N.ar    1  UNL1       -0.1727
      4 N         141.8196  139.5413  164.7082 N.ar    1  UNL1       -0.2558
      5 C         143.0291  139.0444  163.9732 C.ar    1  UNL1        0.0704
      6 C         144.4518  139.1672  164.4320 C.3     1  UNL1        0.0531
      7 C         142.5659  138.4033  162.6986 C.ar    1  UNL1        0.0792
      8 C         141.8206  140.2481  166.0312 C.3     1  UNL1        0.1083
      9 C         140.7430  139.9627  167.0348 C.3     1  UNL1        0.0459
     10 C         140.7440  140.6696  168.3579 C.3     1  UNL1        0.0955
     11 N         141.8227  141.6618  168.6772 N.am    1  UNL1       -0.2775
     12 C         141.8237  142.3686  170.0003 C.2     1  UNL1        0.2525
     13 O         142.9023  143.3608  170.3198 O.2     1  UNL1       -0.2723
     14 C         142.9003  141.9472  167.6737 C.3     1  UNL1        0.0955
     15 C         142.8992  141.2403  166.3506 C.3     1  UNL1        0.0459
     16 C         140.7460  142.0832  171.0039 C.3     1  UNL1        0.1869
     17 C         139.5148  142.9390  171.0462 C.3     1  UNL1        0.0417
     18 O         140.8996  140.9420  171.9653 O.3     1  UNL1       -0.3758
     19 H         140.1199  140.8968  172.5407 H       1  UNL1        0.2110
     20 N         143.4442  137.7723  161.6591 N.pl3   1  UNL1       -0.2806
     21 H         144.0850  137.0705  161.9163 H       1  UNL1        0.1551
     22 C         143.3462  138.2105  160.2279 C.ar    1  UNL1        0.2208
     23 N         143.8995  139.5410  159.8114 N.ar    1  UNL1       -0.2111
     24 C         143.8015  139.9792  158.3802 C.ar    1  UNL1        0.1147
     25 C         143.1502  139.0869  157.3655 C.ar    1  UNL1        0.0946
     26 CL        143.0522  139.5251  155.9343 Cl      1  UNL1       -0.0790
     27 C         142.5969  137.7563  157.7821 C.ar    1  UNL1        0.0992
     28 N         142.6949  137.3181  159.2133 N.ar    1  UNL1       -0.2126
     29 C         141.9456  136.8639  156.7674 C.ar    1  UNL1        0.0572
     30 C         140.6742  137.1529  156.0259 C.ar    1  UNL1        0.1235
     31 N         140.3943  135.9935  155.1163 N.ar    1  UNL1       -0.1634
     32 N         141.4928  134.9879  155.2957 N.ar    1  UNL1       -0.2281
     33 C         141.7438  133.6519  154.6616 C.ar    1  UNL1        0.1004
     34 C         142.9537  132.8539  155.0480 C.ar    1  UNL1        0.0207
     35 C         143.9125  133.3919  156.0684 C.ar    1  UNL1        0.0031
     36 C         143.6614  134.7278  156.7025 C.ar    1  UNL1        0.0193
     37 C         142.4516  135.5259  156.3161 C.ar    1  UNL1        0.0858
@<TRIPOS>BOND
     1     1     2    1
     2     2     3   ar
     3     3     4   ar
     4     4     8    1
     5     8     9    1
     6     9    10    1
     7    10    11    1
     8    11    12   am
     9    12    13    2
    10    12    16    1
    11    16    17    1
    12    16    18    1
    13    11    14    1
    14    14    15    1
    15     4     5   ar
    16     5     6    1
    17     5     7   ar
    18     7    20    1
    19    20    22    1
    20    22    23   ar
    21    23    24   ar
    22    24    25   ar
    23    25    26    1
    24    25    27   ar
    25    27    29    1
    26    29    30   ar
    27    30    31   ar
    28    31    32   ar
    29    32    33   ar
    30    33    34   ar
    31    34    35   ar
    32    35    36   ar
    33    36    37   ar
    34    27    28   ar
    35     7     2   ar
    36    28    22   ar
    37    15     8    1
    38    37    29   ar
    39    37    32   ar
    40    18    19    1
    41    20    21    1
@<TRIPOS>MOLECULE
*****
 37 41 0 0 0
SMALL
GASTEIGER

@<TRIPOS>ATOM
      1 C         143.3581  145.2212  164.0224 C.3     1  UNL1        0.0553
      2 C         143.0584  144.5970  162.6918 C.ar    1  UNL1        0.0935
      3 N         142.0254  145.0659  161.7105 N.ar    1  UNL1       -0.1727
      4 N         142.0677  144.1529  160.5210 N.ar    1  UNL1       -0.2558
      5 C         143.1269  143.1197  160.7672 C.ar    1  UNL1        0.0704
      6 C         143.5070  142.0075  159.8355 C.3     1  UNL1        0.0531
      7 C         143.7392  143.3941  162.1088 C.ar    1  UNL1        0.0792
      8 C         141.2027  144.2552  159.2999 C.3     1  UNL1        0.1083
      9 C         140.1728  143.2012  159.0199 C.3     1  UNL1        0.0459
     10 C         139.3078  143.3034  157.7986 C.3     1  UNL1        0.0955
     11 N         139.4727  144.4598  156.8575 N.am    1  UNL1       -0.2775
     12 C         138.6077  144.5620  155.6363 C.2     1  UNL1        0.2525
     13 O         138.7726  145.7183  154.6951 O.2     1  UNL1       -0.2723
     14 C         140.5026  145.5138  157.1375 C.3     1  UNL1        0.0955
     15 C         141.3676  145.4114  158.3587 C.3     1  UNL1        0.0459
     16 C         137.5778  143.5080  155.3563 C.3     1  UNL1        0.1869
     17 C         137.9190  142.3405  154.4785 C.3     1  UNL1        0.0417
     18 O         136.2067  143.6215  155.9540 O.3     1  UNL1       -0.3758
     19 H         135.6688  142.8640  155.6753 H       1  UNL1        0.2110
     20 N         144.8391  142.6044  162.7542 N.pl3   1  UNL1       -0.2806
     21 H         145.7798  142.8305  162.5716 H       1  UNL1        0.1551
     22 C         144.5060  141.4703  163.6776 C.ar    1  UNL1        0.2208
     23 N         145.3424  140.2253  163.6685 N.ar    1  UNL1       -0.2111
     24 C         145.0093  139.0912  164.5920 C.ar    1  UNL1        0.1147
     25 C         143.8396  139.2021  165.5245 C.ar    1  UNL1        0.0946
     26 CL        143.5065  138.0680  166.4480 Cl      1  UNL1       -0.0790
     27 C         143.0031  140.4473  165.5336 C.ar    1  UNL1        0.0992
     28 N         143.3363  141.5813  164.6102 N.ar    1  UNL1       -0.2126
     29 C         141.8335  140.5583  166.4662 C.ar    1  UNL1        0.0572
     30 C         140.4911  139.9161  166.2772 C.ar    1  UNL1        0.1235
     31 N         139.6289  140.2919  167.4457 N.ar    1  UNL1       -0.1634
     32 N         140.4384  141.1662  168.3569 N.ar    1  UNL1       -0.2281
     33 C         140.1109  141.8338  169.6596 C.ar    1  UNL1        0.1004
     34 C         141.1458  142.6659  170.3569 C.ar    1  UNL1        0.0207
     35 C         142.5083  142.8306  169.7515 C.ar    1  UNL1        0.0031
     36 C         142.8359  142.1630  168.4488 C.ar    1  UNL1        0.0193
     37 C         141.8009  141.3309  167.7515 C.ar    1  UNL1        0.0858
@<TRIPOS>BOND
     1     1     2    1
     2     2     3   ar
     3     3     4   ar
     4     4     8    1
     5     8     9    1
     6     9    10    1
     7    10    11    1
     8    11    12   am
     9    12    13    2
    10    12    16    1
    11    16    17    1
    12    16    18    1
    13    11    14    1
    14    14    15    1
    15     4     5   ar
    16     5     6    1
    17     5     7   ar
    18     7    20    1
    19    20    22    1
    20    22    23   ar
    21    23    24   ar
    22    24    25   ar
    23    25    26    1
    24    25    27   ar
    25    27    29    1
    26    29    30   ar
    27    30    31   ar
    28    31    32   ar
    29    32    33   ar
    30    33    34   ar
    31    34    35   ar
    32    35    36   ar
    33    36    37   ar
    34    27    28   ar
    35     7     2   ar
    36    28    22   ar
    37    15     8    1
    38    37    29   ar
    39    37    32   ar
    40    18    19    1
    41    20    21    1
@<TRIPOS>MOLECULE
*****
 37 41 0 0 0
SMALL
GASTEIGER

@<TRIPOS>ATOM
      1 C         140.9357  145.5155  162.2192 C.3     1  UNL1        0.0553
      2 C         140.8153  144.6144  161.0261 C.ar    1  UNL1        0.0935
      3 N         139.5834  144.4124  160.1945 N.ar    1  UNL1       -0.1727
      4 N         139.9124  143.4301  159.1095 N.ar    1  UNL1       -0.2558
      5 C         141.3477  143.0251  159.2706 C.ar    1  UNL1        0.0704
      6 C         142.0939  142.0580  158.4002 C.3     1  UNL1        0.0531
      7 C         141.9057  143.7570  160.4552 C.ar    1  UNL1        0.0792
      8 C         138.9714  142.9392  158.0496 C.3     1  UNL1        0.1083
      9 C         138.1620  141.6979  158.2819 C.3     1  UNL1        0.0459
     10 C         137.2210  141.2068  157.2219 C.3     1  UNL1        0.0955
     11 N         137.0894  141.9573  155.9298 N.am    1  UNL1       -0.2775
     12 C         136.1484  141.4663  154.8698 C.2     1  UNL1        0.2525
     13 O         136.0168  142.2166  153.5777 O.2     1  UNL1       -0.2723
     14 C         137.8988  143.1986  155.6975 C.3     1  UNL1        0.0955
     15 C         138.8398  143.6895  156.7575 C.3     1  UNL1        0.0459
     16 C         135.3389  140.2249  155.1021 C.3     1  UNL1        0.1869
     17 C         133.9171  140.3329  155.5677 C.3     1  UNL1        0.0417
     18 O         135.9513  138.8756  154.8687 O.3     1  UNL1       -0.3758
     19 H         135.2979  138.1859  155.0641 H       1  UNL1        0.2110
     20 N         143.3079  143.6503  160.9771 N.pl3   1  UNL1       -0.2806
     21 H         143.9833  144.3164  160.7136 H       1  UNL1        0.1551
     22 C         143.6812  142.5287  161.9006 C.ar    1  UNL1        0.2208
     23 N         145.0255  142.5209  162.5659 N.ar    1  UNL1       -0.2111
     24 C         145.3988  141.3994  163.4894 C.ar    1  UNL1        0.1147
     25 C         144.4277  140.2857  163.7476 C.ar    1  UNL1        0.0946
     26 CL        144.8009  139.1641  164.6710 Cl      1  UNL1       -0.0790
     27 C         143.0832  140.2935  163.0822 C.ar    1  UNL1        0.0992
     28 N         142.7101  141.4150  162.1588 N.ar    1  UNL1       -0.2126
     29 C         142.1121  139.1798  163.3404 C.ar    1  UNL1        0.0572
     30 C         142.1328  137.8251  162.6968 C.ar    1  UNL1        0.1235
     31 N         140.9833  137.0334  163.2462 N.ar    1  UNL1       -0.1634
     32 N         140.2522  137.8988  164.2294 N.ar    1  UNL1       -0.2281
     33 C         139.0414  137.6502  165.0791 C.ar    1  UNL1        0.1004
     34 C         138.5283  138.7283  165.9870 C.ar    1  UNL1        0.0207
     35 C         139.2259  140.0549  166.0453 C.ar    1  UNL1        0.0031
     36 C         140.4367  140.3035  165.1955 C.ar    1  UNL1        0.0193
     37 C         140.9499  139.2254  164.2876 C.ar    1  UNL1        0.0858
@<TRIPOS>BOND
     1     1     2    1
     2     2     3   ar
     3     3     4   ar
     4     4     8    1
     5     8     9    1
     6     9    10    1
     7    10    11    1
     8    11    12   am
     9    12    13    2
    10    12    16    1
    11    16    17    1
    12    16    18    1
    13    11    14    1
    14    14    15    1
    15     4     5   ar
    16     5     6    1
    17     5     7   ar
    18     7    20    1
    19    20    22    1
    20    22    23   ar
    21    23    24   ar
    22    24    25   ar
    23    25    26    1
    24    25    27   ar
    25    27    29    1
    26    29    30   ar
    27    30    31   ar
    28    31    32   ar
    29    32    33   ar
    30    33    34   ar
    31    34    35   ar
    32    35    36   ar
    33    36    37   ar
    34    27    28   ar
    35     7     2   ar
    36    28    22   ar
    37    15     8    1
    38    37    29   ar
    39    37    32   ar
    40    18    19    1
    41    20    21    1
@<TRIPOS>MOLECULE
*****
 37 41 0 0 0
SMALL
GASTEIGER

@<TRIPOS>ATOM
      1 C         138.6603  137.6518  162.5786 C.3     1  UNL1        0.0553
      2 C         138.7977  138.8195  163.5101 C.ar    1  UNL1        0.0935
      3 N         139.5755  138.8376  164.7925 N.ar    1  UNL1       -0.1727
      4 N         139.4398  140.2035  165.3977 N.ar    1  UNL1       -0.2558
      5 C         138.5782  141.0295  164.4892 C.ar    1  UNL1        0.0704
      6 C         138.1829  142.4596  164.7088 C.3     1  UNL1        0.0531
      7 C         138.1813  140.1741  163.3226 C.ar    1  UNL1        0.0792
      8 C         140.0574  140.6627  166.6852 C.3     1  UNL1        0.1083
      9 C         141.2386  141.5869  166.6627 C.3     1  UNL1        0.0459
     10 C         141.8563  142.0462  167.9502 C.3     1  UNL1        0.0955
     11 N         141.2926  141.5811  169.2602 N.am    1  UNL1       -0.2775
     12 C         141.9102  142.0403  170.5478 C.2     1  UNL1        0.2525
     13 O         141.3466  141.5753  171.8578 O.2     1  UNL1       -0.2723
     14 C         140.1114  140.6569  169.2827 C.3     1  UNL1        0.0955
     15 C         139.4938  140.1977  167.9951 C.3     1  UNL1        0.0459
     16 C         143.0915  142.9646  170.5253 C.3     1  UNL1        0.1869
     17 C         144.3994  142.4964  169.9595 C.3     1  UNL1        0.0417
     18 O         142.9648  144.3570  171.0686 O.3     1  UNL1       -0.3758
     19 H         143.8137  144.8176  170.9786 H       1  UNL1        0.2110
     20 N         137.3194  140.5988  162.1708 N.pl3   1  UNL1       -0.2806
     21 H         136.3415  140.4977  162.2242 H       1  UNL1        0.1551
     22 C         137.9472  141.1774  160.9375 C.ar    1  UNL1        0.2208
     23 N         138.6438  142.5042  161.0025 N.ar    1  UNL1       -0.2111
     24 C         139.2716  143.0829  159.7692 C.ar    1  UNL1        0.1147
     25 C         139.2029  142.3347  158.4710 C.ar    1  UNL1        0.0946
     26 CL        139.8308  142.9133  157.2377 Cl      1  UNL1       -0.0790
     27 C         138.5063  141.0077  158.4060 C.ar    1  UNL1        0.0992
     28 N         137.8785  140.4292  159.6393 N.ar    1  UNL1       -0.2126
     29 C         138.4376  140.2595  157.1077 C.ar    1  UNL1        0.0572
     30 C         137.4950  140.5427  155.9758 C.ar    1  UNL1        0.1235
     31 N         137.7743  139.5549  154.8820 N.ar    1  UNL1       -0.1634
     32 N         138.8894  138.6613  155.3380 N.ar    1  UNL1       -0.2281
     33 C         139.5845  137.5073  154.6783 C.ar    1  UNL1        0.1004
     34 C         140.6895  136.7888  155.3943 C.ar    1  UNL1        0.0207
     35 C         141.0995  137.2243  156.7699 C.ar    1  UNL1        0.0031
     36 C         140.4044  138.3783  157.4296 C.ar    1  UNL1        0.0193
     37 C         139.2994  139.0968  156.7136 C.ar    1  UNL1        0.0858
@<TRIPOS>BOND
     1     1     2    1
     2     2     3   ar
     3     3     4   ar
     4     4     8    1
     5     8     9    1
     6     9    10    1
     7    10    11    1
     8    11    12   am
     9    12    13    2
    10    12    16    1
    11    16    17    1
    12    16    18    1
    13    11    14    1
    14    14    15    1
    15     4     5   ar
    16     5     6    1
    17     5     7   ar
    18     7    20    1
    19    20    22    1
    20    22    23   ar
    21    23    24   ar
    22    24    25   ar
    23    25    26    1
    24    25    27   ar
    25    27    29    1
    26    29    30   ar
    27    30    31   ar
    28    31    32   ar
    29    32    33   ar
    30    33    34   ar
    31    34    35   ar
    32    35    36   ar
    33    36    37   ar
    34    27    28   ar
    35     7     2   ar
    36    28    22   ar
    37    15     8    1
    38    37    29   ar
    39    37    32   ar
    40    18    19    1
    41    20    21    1
@<TRIPOS>MOLECULE
*****
 37 41 0 0 0
SMALL
GASTEIGER

@<TRIPOS>ATOM
      1 C         138.1166  137.8241  161.9779 C.3     1  UNL1        0.0553
      2 C         138.4655  138.8400  163.0248 C.ar    1  UNL1        0.0935
      3 N         139.0923  138.5536  164.3571 N.ar    1  UNL1       -0.1727
      4 N         139.2631  139.8574  165.0790 N.ar    1  UNL1       -0.2558
      5 C         138.7417  140.9496  164.1929 C.ar    1  UNL1        0.0704
      6 C         138.7176  142.4135  164.5190 C.3     1  UNL1        0.0531
      7 C         138.2488  140.3209  162.9233 C.ar    1  UNL1        0.0792
      8 C         139.8518  140.0374  166.4469 C.3     1  UNL1        0.1083
      9 C         141.3357  140.1810  166.6117 C.3     1  UNL1        0.0459
     10 C         141.9245  140.3610  167.9796 C.3     1  UNL1        0.0955
     11 N         141.0292  140.3973  169.1825 N.am    1  UNL1       -0.2775
     12 C         141.6179  140.5773  170.5505 C.2     1  UNL1        0.2525
     13 O         140.7227  140.6136  171.7535 O.2     1  UNL1       -0.2723
     14 C         139.5452  140.2536  169.0177 C.3     1  UNL1        0.0955
     15 C         138.9566  140.0737  167.6498 C.3     1  UNL1        0.0459
     16 C         143.1019  140.7209  170.7153 C.3     1  UNL1        0.1869
     17 C         143.7943  141.9589  170.2275 C.3     1  UNL1        0.0417
     18 O         143.8935  139.6266  171.3680 O.3     1  UNL1       -0.3758
     19 H         144.8302  139.8771  171.3950 H       1  UNL1        0.2110
     20 N         137.6452  141.0456  161.7570 N.pl3   1  UNL1       -0.2806
     21 H         136.6825  141.2516  161.7502 H       1  UNL1        0.1551
     22 C         138.5082  141.4565  160.6010 C.ar    1  UNL1        0.2208
     23 N         138.2530  142.7577  159.8997 N.ar    1  UNL1       -0.2111
     24 C         139.1160  143.1685  158.7438 C.ar    1  UNL1        0.1147
     25 C         140.2343  142.2782  158.2890 C.ar    1  UNL1        0.0946
     26 CL        141.0973  142.6890  157.1330 Cl      1  UNL1       -0.0790
     27 C         140.4895  140.9769  158.9902 C.ar    1  UNL1        0.0992
     28 N         139.6264  140.5661  160.1462 N.ar    1  UNL1       -0.2126
     29 C         141.6077  140.0866  158.5355 C.ar    1  UNL1        0.0572
     30 C         143.0578  140.2436  158.8856 C.ar    1  UNL1        0.1235
     31 N         143.8184  139.1369  158.2172 N.ar    1  UNL1       -0.1634
     32 N         142.8385  138.2960  157.4540 N.ar    1  UNL1       -0.2281
     33 C         143.0137  137.0716  156.6054 C.ar    1  UNL1        0.1004
     34 C         141.8227  136.4342  155.9534 C.ar    1  UNL1        0.0207
     35 C         140.4564  137.0211  156.1501 C.ar    1  UNL1        0.0031
     36 C         140.2811  138.2455  156.9988 C.ar    1  UNL1        0.0193
     37 C         141.4721  138.8829  157.6507 C.ar    1  UNL1        0.0858
@<TRIPOS>BOND
     1     1     2    1
     2     2     3   ar
     3     3     4   ar
     4     4     8    1
     5     8     9    1
     6     9    10    1
     7    10    11    1
     8    11    12   am
     9    12    13    2
    10    12    16    1
    11    16    17    1
    12    16    18    1
    13    11    14    1
    14    14    15    1
    15     4     5   ar
    16     5     6    1
    17     5     7   ar
    18     7    20    1
    19    20    22    1
    20    22    23   ar
    21    23    24   ar
    22    24    25   ar
    23    25    26    1
    24    25    27   ar
    25    27    29    1
    26    29    30   ar
    27    30    31   ar
    28    31    32   ar
    29    32    33   ar
    30    33    34   ar
    31    34    35   ar
    32    35    36   ar
    33    36    37   ar
    34    27    28   ar
    35     7     2   ar
    36    28    22   ar
    37    15     8    1
    38    37    29   ar
    39    37    32   ar
    40    18    19    1
    41    20    21    1
@<TRIPOS>MOLECULE
*****
 37 41 0 0 0
SMALL
GASTEIGER

@<TRIPOS>ATOM
      1 C         141.0359  136.9540  163.4680 C.3     1  UNL1        0.0553
      2 C         141.0599  137.8126  162.2383 C.ar    1  UNL1        0.0935
      3 N         139.9434  137.9664  161.2485 N.ar    1  UNL1       -0.1727
      4 N         140.3980  138.9171  160.1809 N.ar    1  UNL1       -0.2558
      5 C         141.7955  139.3508  160.5109 C.ar    1  UNL1        0.0704
      6 C         142.6363  140.3003  159.7101 C.3     1  UNL1        0.0531
      7 C         142.2046  138.6682  161.7825 C.ar    1  UNL1        0.0792
      8 C         139.5960  139.3568  158.9920 C.3     1  UNL1        0.1083
      9 C         138.4114  140.2578  159.1782 C.3     1  UNL1        0.0459
     10 C         137.6093  140.6976  157.9894 C.3     1  UNL1        0.0955
     11 N         137.9920  140.2363  156.6143 N.am    1  UNL1       -0.2775
     12 C         137.1899  140.6761  155.4254 C.2     1  UNL1        0.2525
     13 O         137.5726  140.2147  154.0504 O.2     1  UNL1       -0.2723
     14 C         139.1767  139.3352  156.4281 C.3     1  UNL1        0.0955
     15 C         139.9786  138.8955  157.6170 C.3     1  UNL1        0.0459
     16 C         136.0052  141.5771  155.6117 C.3     1  UNL1        0.1869
     17 C         134.6181  141.0068  155.5872 C.3     1  UNL1        0.0417
     18 O         136.2077  143.0484  155.8223 O.3     1  UNL1       -0.3758
     19 H         135.3461  143.4819  155.9247 H       1  UNL1        0.2110
     20 N         143.5263  138.8152  162.4764 N.pl3   1  UNL1       -0.2806
     21 H         144.2060  138.1076  162.3958 H       1  UNL1        0.1551
     22 C         143.8123  140.0404  163.2932 C.ar    1  UNL1        0.2208
     23 N         145.1357  140.7349  163.1653 N.ar    1  UNL1       -0.2111
     24 C         145.4217  141.9600  163.9821 C.ar    1  UNL1        0.1147
     25 C         144.3844  142.4907  164.9268 C.ar    1  UNL1        0.0946
     26 CL        144.6705  143.7158  165.7436 Cl      1  UNL1       -0.0790
     27 C         143.0610  141.7961  165.0547 C.ar    1  UNL1        0.0992
     28 N         142.7750  140.5710  164.2379 N.ar    1  UNL1       -0.2126
     29 C         142.0237  142.3267  165.9994 C.ar    1  UNL1        0.0572
     30 C         140.7388  142.9968  165.6122 C.ar    1  UNL1        0.1235
     31 N         140.0103  143.3646  166.8707 N.ar    1  UNL1       -0.1634
     32 N         140.8449  142.9219  168.0358 N.ar    1  UNL1       -0.2281
     33 C         140.6325  143.0199  169.5174 C.ar    1  UNL1        0.1004
     34 C         141.6646  142.4766  170.4605 C.ar    1  UNL1        0.0207
     35 C         142.9090  141.8351  169.9220 C.ar    1  UNL1        0.0031
     36 C         143.1214  141.7370  168.4404 C.ar    1  UNL1        0.0193
     37 C         142.0893  142.2804  167.4973 C.ar    1  UNL1        0.0858
@<TRIPOS>BOND
     1     1     2    1
     2     2     3   ar
     3     3     4   ar
     4     4     8    1
     5     8     9    1
     6     9    10    1
     7    10    11    1
     8    11    12   am
     9    12    13    2
    10    12    16    1
    11    16    17    1
    12    16    18    1
    13    11    14    1
    14    14    15    1
    15     4     5   ar
    16     5     6    1
    17     5     7   ar
    18     7    20    1
    19    20    22    1
    20    22    23   ar
    21    23    24   ar
    22    24    25   ar
    23    25    26    1
    24    25    27   ar
    25    27    29    1
    26    29    30   ar
    27    30    31   ar
    28    31    32   ar
    29    32    33   ar
    30    33    34   ar
    31    34    35   ar
    32    35    36   ar
    33    36    37   ar
    34    27    28   ar
    35     7     2   ar
    36    28    22   ar
    37    15     8    1
    38    37    29   ar
    39    37    32   ar
    40    18    19    1
    41    20    21    1
@<TRIPOS>MOLECULE
*****
 37 41 0 0 0
SMALL
GASTEIGER

@<TRIPOS>ATOM
      1 C         142.2065  145.4204  163.9240 C.3     1  UNL1        0.0553
      2 C         142.0253  144.5911  162.6873 C.ar    1  UNL1        0.0935
      3 N         143.0185  144.4406  161.5733 N.ar    1  UNL1       -0.1727
      4 N         142.4261  143.5232  160.5449 N.ar    1  UNL1       -0.2558
      5 C         141.0669  143.1067  161.0234 C.ar    1  UNL1        0.0704
      6 C         140.1213  142.1910  160.3041 C.3     1  UNL1        0.0531
      7 C         140.8191  143.7667  162.3474 C.ar    1  UNL1        0.0792
      8 C         143.0785  143.0970  159.2632 C.3     1  UNL1        0.1083
      9 C         144.2986  142.2251  159.2964 C.3     1  UNL1        0.0459
     10 C         144.9510  141.7990  158.0147 C.3     1  UNL1        0.0955
     11 N         144.3832  142.2448  156.6998 N.am    1  UNL1       -0.2775
     12 C         145.0357  141.8186  155.4180 C.2     1  UNL1        0.2525
     13 O         144.4679  142.2644  154.1031 O.2     1  UNL1       -0.2723
     14 C         143.1631  143.1167  156.6666 C.3     1  UNL1        0.0955
     15 C         142.5108  143.5428  157.9484 C.3     1  UNL1        0.0459
     16 C         146.2558  140.9467  155.4512 C.3     1  UNL1        0.1869
     17 C         147.6049  141.5333  155.1585 C.3     1  UNL1        0.0417
     18 O         146.1268  139.4882  155.7772 O.3     1  UNL1       -0.3758
     19 H         147.0033  139.0734  155.7561 H       1  UNL1        0.2110
     20 N         139.5824  143.6270  163.1846 N.pl3   1  UNL1       -0.2806
     21 H         138.9278  144.3613  163.2221 H       1  UNL1        0.1551
     22 C         139.3430  142.3683  163.9647 C.ar    1  UNL1        0.2208
     23 N         138.1231  141.5386  163.6937 N.ar    1  UNL1       -0.2111
     24 C         137.8837  140.2800  164.4738 C.ar    1  UNL1        0.1147
     25 C         138.8642  139.8511  165.5249 C.ar    1  UNL1        0.0946
     26 CL        138.6248  138.5925  166.3050 Cl      1  UNL1       -0.0790
     27 C         140.0841  140.6809  165.7959 C.ar    1  UNL1        0.0992
     28 N         140.3235  141.9394  165.0158 N.ar    1  UNL1       -0.2126
     29 C         141.0646  140.2520  166.8470 C.ar    1  UNL1        0.0572
     30 C         142.2180  139.3143  166.6466 C.ar    1  UNL1        0.1235
     31 N         142.9300  139.1683  167.9588 N.ar    1  UNL1       -0.1634
     32 N         142.2166  140.0159  168.9701 N.ar    1  UNL1       -0.2281
     33 C         142.4679  140.2642  170.4278 C.ar    1  UNL1        0.1004
     34 C         141.5662  141.1824  171.1985 C.ar    1  UNL1        0.0207
     35 C         140.4133  141.8522  170.5113 C.ar    1  UNL1        0.0031
     36 C         140.1620  141.6038  169.0535 C.ar    1  UNL1        0.0193
     37 C         141.0637  140.6856  168.2829 C.ar    1  UNL1        0.0858
@<TRIPOS>BOND
     1     1     2    1
     2     2     3   ar
     3     3     4   ar
     4     4     8    1
     5     8     9    1
     6     9    10    1
     7    10    11    1
     8    11    12   am
     9    12    13    2
    10    12    16    1
    11    16    17    1
    12    16    18    1
    13    11    14    1
    14    14    15    1
    15     4     5   ar
    16     5     6    1
    17     5     7   ar
    18     7    20    1
    19    20    22    1
    20    22    23   ar
    21    23    24   ar
    22    24    25   ar
    23    25    26    1
    24    25    27   ar
    25    27    29    1
    26    29    30   ar
    27    30    31   ar
    28    31    32   ar
    29    32    33   ar
    30    33    34   ar
    31    34    35   ar
    32    35    36   ar
    33    36    37   ar
    34    27    28   ar
    35     7     2   ar
    36    28    22   ar
    37    15     8    1
    38    37    29   ar
    39    37    32   ar
    40    18    19    1
    41    20    21    1
