@<TRIPOS>MOLECULE
*****
 32 35 0 0 0
SMALL
GASTEIGER

@<TRIPOS>ATOM
      1 N         141.4592  144.4735  162.9652 N.3     1  UNL1       -0.2710
      2 C         141.8034  143.5929  161.8008 C.3     1  UNL1        0.0735
      3 C         143.1373  142.9090  161.7462 C.3     1  UNL1        0.0331
      4 C         144.1269  143.1057  162.8561 C.3     1  UNL1        0.0570
      5 C         143.7827  143.9864  164.0205 C.3     1  UNL1        0.0331
      6 C         142.4488  144.6703  164.0751 C.3     1  UNL1        0.0735
      7 N         145.4609  142.4218  162.8015 N.3     1  UNL1       -0.2947
      8 H         146.1516  143.0972  163.1288 H       1  UNL1        0.1235
      9 C         145.6884  141.1588  163.5779 C.3     1  UNL1        0.0956
     10 C         144.5560  140.2004  163.7997 C.ar    1  UNL1       -0.0055
     11 C         143.9634  140.0436  165.1687 C.ar    1  UNL1       -0.0020
     12 C         142.8311  139.0852  165.3905 C.ar    1  UNL1        0.0120
     13 C         142.2912  138.2836  164.2432 C.ar    1  UNL1        0.0682
     14 CL        141.1589  137.3253  164.4650 Cl      1  UNL1       -0.0814
     15 C         142.8839  138.4405  162.8742 C.ar    1  UNL1        0.0679
     16 CL        142.3441  137.6390  161.7270 Cl      1  UNL1       -0.0814
     17 C         144.0163  139.3989  162.6525 C.ar    1  UNL1        0.0093
     18 C         140.1252  145.1574  163.0198 C.3     1  UNL1        0.0970
     19 C         139.0527  144.6377  163.9306 C.3     1  UNL1        0.1264
     20 C         140.4767  142.2438  167.4649 C.ar    1  UNL1        0.1593
     21 C         140.1999  140.7712  167.5339 C.ar    1  UNL1        0.1357
     22 N         139.4484  140.0966  166.4247 N.ar    1  UNL1       -0.2392
     23 C         138.9737  140.8945  165.2467 C.ar    1  UNL1        0.0975
     24 C         138.2222  140.2199  164.1376 C.ar    1  UNL1        0.0255
     25 C         137.7475  141.0178  162.9595 C.ar    1  UNL1        0.0623
     26 C         138.0243  142.4905  162.8905 C.ar    1  UNL1        0.2611
     27 O         137.5497  143.2885  161.7124 O.2     1  UNL1       -0.2670
     28 N         138.7758  143.1651  163.9996 N.ar    1  UNL1       -0.2926
     29 C         139.2505  142.3671  165.1777 C.ar    1  UNL1        0.0832
     30 C         140.0020  143.0417  166.2868 C.ar    1  UNL1        0.0573
     31 C         140.4810  143.6454  169.6524 C.3     1  UNL1        0.2525
     32 O         141.2282  142.9184  168.5740 O.3     1  UNL1       -0.4698
@<TRIPOS>BOND
     1    31    32    1
     2    32    20    1
     3    20    21   ar
     4    21    22   ar
     5    22    23   ar
     6    23    24   ar
     7    24    25   ar
     8    25    26   ar
     9    26    27    2
    10    26    28   ar
    11    28    19    1
    12    19    18    1
    13    18     1    1
    14     1     2    1
    15     2     3    1
    16     3     4    1
    17     4     7    1
    18     7     9    1
    19     9    10    1
    20    10    11   ar
    21    11    12   ar
    22    12    13   ar
    23    13    14    1
    24    13    15   ar
    25    15    16    1
    26    15    17   ar
    27     4     5    1
    28     5     6    1
    29    28    29   ar
    30    29    30   ar
    31    30    20   ar
    32    29    23   ar
    33     6     1    1
    34    17    10   ar
    35     7     8    1
@<TRIPOS>MOLECULE
*****
 32 35 0 0 0
SMALL
GASTEIGER

@<TRIPOS>ATOM
      1 N         142.6560  144.1195  163.3099 N.3     1  UNL1       -0.2710
      2 C         142.3798  143.2781  162.0992 C.3     1  UNL1        0.0735
      3 C         140.9734  143.1159  161.6036 C.3     1  UNL1        0.0331
      4 C         139.8432  143.7950  162.3186 C.3     1  UNL1        0.0570
      5 C         140.1194  144.6364  163.5293 C.3     1  UNL1        0.0331
      6 C         141.5258  144.7987  164.0250 C.3     1  UNL1        0.0735
      7 N         138.4367  143.6328  161.8230 N.3     1  UNL1       -0.2947
      8 H         138.4963  143.1800  160.9109 H       1  UNL1        0.1235
      9 C         137.4426  142.8516  162.6301 C.3     1  UNL1        0.0956
     10 C         137.8441  141.5506  163.2594 C.ar    1  UNL1       -0.0055
     11 C         138.0973  141.4783  164.7361 C.ar    1  UNL1       -0.0020
     12 C         138.4989  140.1772  165.3653 C.ar    1  UNL1        0.0120
     13 C         138.6472  138.9484  164.5179 C.ar    1  UNL1        0.0682
     14 CL        139.0488  137.6474  165.1471 Cl      1  UNL1       -0.0814
     15 C         138.3940  139.0207  163.0412 C.ar    1  UNL1        0.0679
     16 CL        138.5424  137.7920  162.1937 Cl      1  UNL1       -0.0814
     17 C         137.9925  140.3219  162.4119 C.ar    1  UNL1        0.0093
     18 C         144.0625  144.2818  163.8055 C.3     1  UNL1        0.0970
     19 C         144.5523  143.4538  164.9564 C.3     1  UNL1        0.1264
     20 C         141.4101  141.7373  167.6822 C.ar    1  UNL1        0.1593
     21 C         141.1609  140.2583  167.7017 C.ar    1  UNL1        0.1357
     22 N         141.9591  139.3514  166.8127 N.ar    1  UNL1       -0.2392
     23 C         143.0065  139.9236  165.9041 C.ar    1  UNL1        0.0975
     24 C         143.8047  139.0167  165.0150 C.ar    1  UNL1        0.0255
     25 C         144.8521  139.5888  164.1064 C.ar    1  UNL1        0.0623
     26 C         145.1013  141.0679  164.0868 C.ar    1  UNL1        0.2611
     27 O         146.1487  141.6401  163.1783 O.2     1  UNL1       -0.2670
     28 N         144.3031  141.9748  164.9759 N.ar    1  UNL1       -0.2926
     29 C         143.2557  141.4026  165.8846 C.ar    1  UNL1        0.0832
     30 C         142.4575  142.3094  166.7736 C.ar    1  UNL1        0.0573
     31 C         140.0610  142.1288  169.8678 C.3     1  UNL1        0.2525
     32 O         140.6119  142.6441  168.5713 O.3     1  UNL1       -0.4698
@<TRIPOS>BOND
     1    31    32    1
     2    32    20    1
     3    20    21   ar
     4    21    22   ar
     5    22    23   ar
     6    23    24   ar
     7    24    25   ar
     8    25    26   ar
     9    26    27    2
    10    26    28   ar
    11    28    19    1
    12    19    18    1
    13    18     1    1
    14     1     2    1
    15     2     3    1
    16     3     4    1
    17     4     7    1
    18     7     9    1
    19     9    10    1
    20    10    11   ar
    21    11    12   ar
    22    12    13   ar
    23    13    14    1
    24    13    15   ar
    25    15    16    1
    26    15    17   ar
    27     4     5    1
    28     5     6    1
    29    28    29   ar
    30    29    30   ar
    31    30    20   ar
    32    29    23   ar
    33     6     1    1
    34    17    10   ar
    35     7     8    1
@<TRIPOS>MOLECULE
*****
 32 35 0 0 0
SMALL
GASTEIGER

@<TRIPOS>ATOM
      1 N         143.0055  141.4549  165.8196 N.3     1  UNL1       -0.2710
      2 C         143.3753  140.0106  165.9839 C.3     1  UNL1        0.0735
      3 C         143.8498  139.2187  164.8017 C.3     1  UNL1        0.0331
      4 C         143.9546  139.8711  163.4552 C.3     1  UNL1        0.0570
      5 C         143.5848  141.3155  163.2908 C.3     1  UNL1        0.0331
      6 C         143.1103  142.1074  164.4730 C.3     1  UNL1        0.0735
      7 N         144.4291  139.0792  162.2728 N.3     1  UNL1       -0.2947
      8 H         145.3502  138.7135  162.5139 H       1  UNL1        0.1235
      9 C         143.6198  137.9192  161.7735 C.3     1  UNL1        0.0956
     10 C         142.1219  137.9986  161.7638 C.ar    1  UNL1       -0.0055
     11 C         141.3362  137.4872  162.9348 C.ar    1  UNL1       -0.0020
     12 C         139.8384  137.5665  162.9252 C.ar    1  UNL1        0.0120
     13 C         139.1262  138.1573  161.7446 C.ar    1  UNL1        0.0682
     14 CL        137.6283  138.2366  161.7349 Cl      1  UNL1       -0.0814
     15 C         139.9119  138.6687  160.5736 C.ar    1  UNL1        0.0679
     16 CL        139.1997  139.2595  159.3930 Cl      1  UNL1       -0.0814
     17 C         141.4098  138.5893  160.5833 C.ar    1  UNL1        0.0093
     18 C         142.5310  142.2469  167.0019 C.3     1  UNL1        0.0970
     19 C         141.0645  142.4906  167.2016 C.3     1  UNL1        0.1264
     20 C         138.8005  143.8153  163.5452 C.ar    1  UNL1        0.1593
     21 C         137.7950  142.8992  162.9129 C.ar    1  UNL1        0.1357
     22 N         137.5442  141.5416  163.4993 N.ar    1  UNL1       -0.2392
     23 C         138.2989  141.1000  164.7181 C.ar    1  UNL1        0.0975
     24 C         138.0481  139.7424  165.3046 C.ar    1  UNL1        0.0255
     25 C         138.8027  139.3008  166.5234 C.ar    1  UNL1        0.0623
     26 C         139.8082  140.2169  167.1557 C.ar    1  UNL1        0.2611
     27 O         140.5629  139.7753  168.3745 O.2     1  UNL1       -0.2670
     28 N         140.0590  141.5745  166.5693 N.ar    1  UNL1       -0.2926
     29 C         139.3043  142.0161  165.3504 C.ar    1  UNL1        0.0832
     30 C         139.5551  143.3737  164.7639 C.ar    1  UNL1        0.0573
     31 C         140.0697  145.3435  161.8707 C.3     1  UNL1        0.2525
     32 O         139.0513  145.1729  162.9587 O.3     1  UNL1       -0.4698
@<TRIPOS>BOND
     1    31    32    1
     2    32    20    1
     3    20    21   ar
     4    21    22   ar
     5    22    23   ar
     6    23    24   ar
     7    24    25   ar
     8    25    26   ar
     9    26    27    2
    10    26    28   ar
    11    28    19    1
    12    19    18    1
    13    18     1    1
    14     1     2    1
    15     2     3    1
    16     3     4    1
    17     4     7    1
    18     7     9    1
    19     9    10    1
    20    10    11   ar
    21    11    12   ar
    22    12    13   ar
    23    13    14    1
    24    13    15   ar
    25    15    16    1
    26    15    17   ar
    27     4     5    1
    28     5     6    1
    29    28    29   ar
    30    29    30   ar
    31    30    20   ar
    32    29    23   ar
    33     6     1    1
    34    17    10   ar
    35     7     8    1
@<TRIPOS>MOLECULE
*****
 32 35 0 0 0
SMALL
GASTEIGER

@<TRIPOS>ATOM
      1 N         142.9913  144.1212  162.4296 N.3     1  UNL1       -0.2710
      2 C         142.3156  144.9251  163.5007 C.3     1  UNL1        0.0735
      3 C         140.8320  145.1409  163.4532 C.3     1  UNL1        0.0331
      4 C         140.0240  144.5527  162.3346 C.3     1  UNL1        0.0570
      5 C         140.6997  143.7488  161.2635 C.3     1  UNL1        0.0331
      6 C         142.1833  143.5330  161.3110 C.3     1  UNL1        0.0735
      7 N         138.5403  144.7684  162.2871 N.3     1  UNL1       -0.2947
      8 H         138.2408  144.5465  161.3376 H       1  UNL1        0.1235
      9 C         137.6415  144.0052  163.2142 C.3     1  UNL1        0.0956
     10 C         137.9453  142.5739  163.5441 C.ar    1  UNL1       -0.0055
     11 C         138.5111  142.2174  164.8868 C.ar    1  UNL1       -0.0020
     12 C         138.8150  140.7861  165.2166 C.ar    1  UNL1        0.0120
     13 C         138.5531  139.7111  164.2037 C.ar    1  UNL1        0.0682
     14 CL        138.8570  138.2797  164.5336 Cl      1  UNL1       -0.0814
     15 C         137.9873  140.0675  162.8610 C.ar    1  UNL1        0.0679
     16 CL        137.7255  138.9926  161.8482 Cl      1  UNL1       -0.0814
     17 C         137.6835  141.4989  162.5312 C.ar    1  UNL1        0.0093
     18 C         144.4750  143.9055  162.4771 C.3     1  UNL1        0.0970
     19 C         145.0288  142.6158  163.0061 C.3     1  UNL1        0.1264
     20 C         143.3855  138.8973  161.0767 C.ar    1  UNL1        0.1593
     21 C         142.5067  137.9701  161.8628 C.ar    1  UNL1        0.1357
     22 N         142.1757  138.2825  163.2921 N.ar    1  UNL1       -0.2392
     23 C         142.7234  139.5219  163.9353 C.ar    1  UNL1        0.0975
     24 C         142.3923  139.8342  165.3645 C.ar    1  UNL1        0.0255
     25 C         142.9400  141.0737  166.0077 C.ar    1  UNL1        0.0623
     26 C         143.8189  142.0009  165.2215 C.ar    1  UNL1        0.2611
     27 O         144.3666  143.2404  165.8647 O.2     1  UNL1       -0.2670
     28 N         144.1500  141.6886  163.7922 N.ar    1  UNL1       -0.2926
     29 C         143.6022  140.4491  163.1491 C.ar    1  UNL1        0.0832
     30 C         143.9333  140.1367  161.7198 C.ar    1  UNL1        0.0573
     31 C         142.6701  138.0007  158.7456 C.3     1  UNL1        0.2525
     32 O         143.7166  138.5850  159.6474 O.3     1  UNL1       -0.4698
@<TRIPOS>BOND
     1    31    32    1
     2    32    20    1
     3    20    21   ar
     4    21    22   ar
     5    22    23   ar
     6    23    24   ar
     7    24    25   ar
     8    25    26   ar
     9    26    27    2
    10    26    28   ar
    11    28    19    1
    12    19    18    1
    13    18     1    1
    14     1     2    1
    15     2     3    1
    16     3     4    1
    17     4     7    1
    18     7     9    1
    19     9    10    1
    20    10    11   ar
    21    11    12   ar
    22    12    13   ar
    23    13    14    1
    24    13    15   ar
    25    15    16    1
    26    15    17   ar
    27     4     5    1
    28     5     6    1
    29    28    29   ar
    30    29    30   ar
    31    30    20   ar
    32    29    23   ar
    33     6     1    1
    34    17    10   ar
    35     7     8    1
@<TRIPOS>MOLECULE
*****
 32 35 0 0 0
SMALL
GASTEIGER

@<TRIPOS>ATOM
      1 N         138.0394  142.6309  163.3146 N.3     1  UNL1       -0.2710
      2 C         138.3371  142.1940  161.9108 C.3     1  UNL1        0.0735
      3 C         138.5187  140.7376  161.6012 C.3     1  UNL1        0.0331
      4 C         138.4026  139.7182  162.6954 C.3     1  UNL1        0.0570
      5 C         138.1050  140.1551  164.0991 C.3     1  UNL1        0.0331
      6 C         137.9233  141.6115  164.4087 C.3     1  UNL1        0.0735
      7 N         138.5843  138.2617  162.3858 N.3     1  UNL1       -0.2947
      8 H         138.8845  138.2027  161.4128 H       1  UNL1        0.1235
      9 C         139.5492  137.4392  163.1873 C.3     1  UNL1        0.0956
     10 C         140.9306  137.9568  163.4589 C.ar    1  UNL1       -0.0055
     11 C         141.7502  138.5296  162.3407 C.ar    1  UNL1       -0.0020
     12 C         143.1316  139.0471  162.6123 C.ar    1  UNL1        0.0120
     13 C         143.6935  138.9918  164.0020 C.ar    1  UNL1        0.0682
     14 CL        145.0750  139.5093  164.2735 Cl      1  UNL1       -0.0814
     15 C         142.8740  138.4190  165.1201 C.ar    1  UNL1        0.0679
     16 CL        143.4358  138.3637  166.5098 Cl      1  UNL1       -0.0814
     17 C         141.4925  137.9015  164.8485 C.ar    1  UNL1        0.0093
     18 C         137.8578  144.0874  163.6241 C.3     1  UNL1        0.0970
     19 C         138.9206  144.8326  164.3759 C.3     1  UNL1        0.1264
     20 C         141.1232  142.1260  167.2172 C.ar    1  UNL1        0.1593
     21 C         142.5704  141.8094  166.9815 C.ar    1  UNL1        0.1357
     22 N         143.2833  142.3951  165.7989 N.ar    1  UNL1       -0.2392
     23 C         142.5491  143.2972  164.8518 C.ar    1  UNL1        0.0975
     24 C         143.2621  143.8829  163.6691 C.ar    1  UNL1        0.0255
     25 C         142.5279  144.7851  162.7220 C.ar    1  UNL1        0.0623
     26 C         141.0807  145.1017  162.9576 C.ar    1  UNL1        0.2611
     27 O         140.3465  146.0038  162.0106 O.2     1  UNL1       -0.2670
     28 N         140.3677  144.5160  164.1403 N.ar    1  UNL1       -0.2926
     29 C         141.1020  143.6138  165.0874 C.ar    1  UNL1        0.0832
     30 C         140.3890  143.0282  166.2701 C.ar    1  UNL1        0.0573
     31 C         139.6679  140.2443  168.2618 C.3     1  UNL1        0.2525
     32 O         140.4103  141.5404  168.3999 O.3     1  UNL1       -0.4698
@<TRIPOS>BOND
     1    31    32    1
     2    32    20    1
     3    20    21   ar
     4    21    22   ar
     5    22    23   ar
     6    23    24   ar
     7    24    25   ar
     8    25    26   ar
     9    26    27    2
    10    26    28   ar
    11    28    19    1
    12    19    18    1
    13    18     1    1
    14     1     2    1
    15     2     3    1
    16     3     4    1
    17     4     7    1
    18     7     9    1
    19     9    10    1
    20    10    11   ar
    21    11    12   ar
    22    12    13   ar
    23    13    14    1
    24    13    15   ar
    25    15    16    1
    26    15    17   ar
    27     4     5    1
    28     5     6    1
    29    28    29   ar
    30    29    30   ar
    31    30    20   ar
    32    29    23   ar
    33     6     1    1
    34    17    10   ar
    35     7     8    1
@<TRIPOS>MOLECULE
*****
 32 35 0 0 0
SMALL
GASTEIGER

@<TRIPOS>ATOM
      1 N         144.6535  140.8010  162.8825 N.3     1  UNL1       -0.2710
      2 C         144.0736  141.1193  161.5362 C.3     1  UNL1        0.0735
      3 C         143.1085  140.1691  160.8916 C.3     1  UNL1        0.0331
      4 C         142.7232  138.9006  161.5933 C.3     1  UNL1        0.0570
      5 C         143.3030  138.5823  162.9396 C.3     1  UNL1        0.0331
      6 C         144.2682  139.5325  163.5842 C.3     1  UNL1        0.0735
      7 N         141.7579  137.9504  160.9487 N.3     1  UNL1       -0.2947
      8 H         141.9586  137.0248  161.3275 H       1  UNL1        0.1235
      9 C         140.2810  138.1673  161.0953 C.3     1  UNL1        0.0956
     10 C         139.6928  138.4342  162.4491 C.ar    1  UNL1       -0.0055
     11 C         139.7376  137.3734  163.5087 C.ar    1  UNL1       -0.0020
     12 C         139.1495  137.6404  164.8625 C.ar    1  UNL1        0.0120
     13 C         138.5165  138.9681  165.1568 C.ar    1  UNL1        0.0682
     14 CL        137.9284  139.2351  166.5106 Cl      1  UNL1       -0.0814
     15 C         138.4718  140.0289  164.0972 C.ar    1  UNL1        0.0679
     16 CL        137.8388  141.3566  164.3913 Cl      1  UNL1       -0.0814
     17 C         139.0599  139.7619  162.7433 C.ar    1  UNL1        0.0093
     18 C         145.6187  141.7513  163.5271 C.3     1  UNL1        0.0970
     19 C         145.1286  142.7516  164.5316 C.3     1  UNL1        0.1264
     20 C         142.1075  141.0793  167.4172 C.ar    1  UNL1        0.1593
     21 C         140.6849  141.5526  167.3717 C.ar    1  UNL1        0.1357
     22 N         140.2693  142.5834  166.3643 N.ar    1  UNL1       -0.2392
     23 C         141.2763  143.1408  165.4025 C.ar    1  UNL1        0.0975
     24 C         140.8607  144.1716  164.3951 C.ar    1  UNL1        0.0255
     25 C         141.8677  144.7290  163.4333 C.ar    1  UNL1        0.0623
     26 C         143.2904  144.2557  163.4787 C.ar    1  UNL1        0.2611
     27 O         144.2974  144.8131  162.5169 O.2     1  UNL1       -0.2670
     28 N         143.7060  143.2249  164.4861 N.ar    1  UNL1       -0.2926
     29 C         142.6989  142.6675  165.4480 C.ar    1  UNL1        0.0832
     30 C         143.1145  141.6367  166.4554 C.ar    1  UNL1        0.0573
     31 C         142.8074  140.4551  169.8401 C.3     1  UNL1        0.2525
     32 O         142.5231  140.0485  168.4246 O.3     1  UNL1       -0.4698
@<TRIPOS>BOND
     1    31    32    1
     2    32    20    1
     3    20    21   ar
     4    21    22   ar
     5    22    23   ar
     6    23    24   ar
     7    24    25   ar
     8    25    26   ar
     9    26    27    2
    10    26    28   ar
    11    28    19    1
    12    19    18    1
    13    18     1    1
    14     1     2    1
    15     2     3    1
    16     3     4    1
    17     4     7    1
    18     7     9    1
    19     9    10    1
    20    10    11   ar
    21    11    12   ar
    22    12    13   ar
    23    13    14    1
    24    13    15   ar
    25    15    16    1
    26    15    17   ar
    27     4     5    1
    28     5     6    1
    29    28    29   ar
    30    29    30   ar
    31    30    20   ar
    32    29    23   ar
    33     6     1    1
    34    17    10   ar
    35     7     8    1
@<TRIPOS>MOLECULE
*****
 32 35 0 0 0
SMALL
GASTEIGER

@<TRIPOS>ATOM
      1 N         142.0029  143.7240  162.9660 N.3     1  UNL1       -0.2710
      2 C         141.8490  143.0116  161.6550 C.3     1  UNL1        0.0735
      3 C         142.6954  141.8115  161.3497 C.3     1  UNL1        0.0331
      4 C         143.6957  141.3237  162.3554 C.3     1  UNL1        0.0570
      5 C         143.8495  142.0361  163.6665 C.3     1  UNL1        0.0331
      6 C         143.0031  143.2362  163.9718 C.3     1  UNL1        0.0735
      7 N         144.5422  140.1236  162.0502 N.3     1  UNL1       -0.2947
      8 H         145.2190  140.0400  162.8087 H       1  UNL1        0.1235
      9 C         143.9029  138.7761  161.8898 C.3     1  UNL1        0.0956
     10 C         142.6689  138.4337  162.6708 C.ar    1  UNL1       -0.0055
     11 C         142.7508  138.2408  164.1561 C.ar    1  UNL1       -0.0020
     12 C         141.5168  137.8984  164.9371 C.ar    1  UNL1        0.0120
     13 C         140.2008  137.7488  164.2328 C.ar    1  UNL1        0.0682
     14 CL        138.9669  137.4064  165.0138 Cl      1  UNL1       -0.0814
     15 C         140.1189  137.9418  162.7475 C.ar    1  UNL1        0.0679
     16 CL        138.8031  137.7923  162.0432 Cl      1  UNL1       -0.0814
     17 C         141.3530  138.2842  161.9665 C.ar    1  UNL1        0.0093
     18 C         141.1564  144.9242  163.2713 C.3     1  UNL1        0.0970
     19 C         139.8720  144.7629  164.0292 C.3     1  UNL1        0.1264
     20 C         140.6876  142.1536  167.6035 C.ar    1  UNL1        0.1593
     21 C         140.0435  140.8031  167.7089 C.ar    1  UNL1        0.1357
     22 N         139.1274  140.3223  166.6227 N.ar    1  UNL1       -0.2392
     23 C         138.8555  141.1921  165.4313 C.ar    1  UNL1        0.0975
     24 C         137.9394  140.7113  164.3452 C.ar    1  UNL1        0.0255
     25 C         137.6675  141.5810  163.1537 C.ar    1  UNL1        0.0623
     26 C         138.3117  142.9316  163.0483 C.ar    1  UNL1        0.2611
     27 O         138.0398  143.8013  161.8569 O.2     1  UNL1       -0.2670
     28 N         139.2278  143.4124  164.1345 N.ar    1  UNL1       -0.2926
     29 C         139.4997  142.5426  165.3260 C.ar    1  UNL1        0.0832
     30 C         140.4157  143.0233  166.4121 C.ar    1  UNL1        0.0573
     31 C         143.0598  142.2759  168.6561 C.3     1  UNL1        0.2525
     32 O         141.6037  142.6344  168.6897 O.3     1  UNL1       -0.4698
@<TRIPOS>BOND
     1    31    32    1
     2    32    20    1
     3    20    21   ar
     4    21    22   ar
     5    22    23   ar
     6    23    24   ar
     7    24    25   ar
     8    25    26   ar
     9    26    27    2
    10    26    28   ar
    11    28    19    1
    12    19    18    1
    13    18     1    1
    14     1     2    1
    15     2     3    1
    16     3     4    1
    17     4     7    1
    18     7     9    1
    19     9    10    1
    20    10    11   ar
    21    11    12   ar
    22    12    13   ar
    23    13    14    1
    24    13    15   ar
    25    15    16    1
    26    15    17   ar
    27     4     5    1
    28     5     6    1
    29    28    29   ar
    30    29    30   ar
    31    30    20   ar
    32    29    23   ar
    33     6     1    1
    34    17    10   ar
    35     7     8    1
@<TRIPOS>MOLECULE
*****
 32 35 0 0 0
SMALL
GASTEIGER

@<TRIPOS>ATOM
      1 N         142.8810  143.4006  161.4298 N.3     1  UNL1       -0.2710
      2 C         143.2317  144.2162  162.6389 C.3     1  UNL1        0.0735
      3 C         142.1484  144.8828  163.4339 C.3     1  UNL1        0.0331
      4 C         140.7144  144.7338  163.0198 C.3     1  UNL1        0.0570
      5 C         140.3637  143.9183  161.8107 C.3     1  UNL1        0.0331
      6 C         141.4470  143.2517  161.0157 C.3     1  UNL1        0.0735
      7 N         139.6310  145.4004  163.8148 N.3     1  UNL1       -0.2947
      8 H         138.8242  145.4886  163.1970 H       1  UNL1        0.1235
      9 C         139.1376  144.7721  165.0844 C.3     1  UNL1        0.0956
     10 C         139.0197  143.2802  165.1863 C.ar    1  UNL1       -0.0055
     11 C         137.9255  142.5625  164.4532 C.ar    1  UNL1       -0.0020
     12 C         137.8076  141.0707  164.5551 C.ar    1  UNL1        0.0120
     13 C         138.7840  140.2965  165.3903 C.ar    1  UNL1        0.0682
     14 CL        138.6661  138.8046  165.4922 Cl      1  UNL1       -0.0814
     15 C         139.8782  141.0142  166.1234 C.ar    1  UNL1        0.0679
     16 CL        140.8546  140.2401  166.9585 Cl      1  UNL1       -0.0814
     17 C         139.9961  142.5061  166.0214 C.ar    1  UNL1        0.0093
     18 C         143.9644  142.7340  160.6348 C.3     1  UNL1        0.0970
     19 C         144.1197  141.2428  160.6818 C.3     1  UNL1        0.1264
     20 C         140.6700  138.4133  161.2675 C.ar    1  UNL1        0.1593
     21 C         140.5114  137.6833  162.5682 C.ar    1  UNL1        0.1357
     22 N         141.5026  137.8965  163.6737 N.ar    1  UNL1       -0.2392
     23 C         142.6524  138.8396  163.4785 C.ar    1  UNL1        0.0975
     24 C         143.6436  139.0528  164.5839 C.ar    1  UNL1        0.0255
     25 C         144.7935  139.9960  164.3887 C.ar    1  UNL1        0.0623
     26 C         144.9522  140.7260  163.0879 C.ar    1  UNL1        0.2611
     27 O         146.1021  141.6692  162.8927 O.2     1  UNL1       -0.2670
     28 N         143.9611  140.5129  161.9825 N.ar    1  UNL1       -0.2926
     29 C         142.8111  139.5696  162.1778 C.ar    1  UNL1        0.0832
     30 C         141.8199  139.3565  161.0723 C.ar    1  UNL1        0.0573
     31 C         139.4003  139.3008  159.1818 C.3     1  UNL1        0.2525
     32 O         139.6788  138.2001  160.1620 O.3     1  UNL1       -0.4698
@<TRIPOS>BOND
     1    31    32    1
     2    32    20    1
     3    20    21   ar
     4    21    22   ar
     5    22    23   ar
     6    23    24   ar
     7    24    25   ar
     8    25    26   ar
     9    26    27    2
    10    26    28   ar
    11    28    19    1
    12    19    18    1
    13    18     1    1
    14     1     2    1
    15     2     3    1
    16     3     4    1
    17     4     7    1
    18     7     9    1
    19     9    10    1
    20    10    11   ar
    21    11    12   ar
    22    12    13   ar
    23    13    14    1
    24    13    15   ar
    25    15    16    1
    26    15    17   ar
    27     4     5    1
    28     5     6    1
    29    28    29   ar
    30    29    30   ar
    31    30    20   ar
    32    29    23   ar
    33     6     1    1
    34    17    10   ar
    35     7     8    1
@<TRIPOS>MOLECULE
*****
 32 35 0 0 0
SMALL
GASTEIGER

@<TRIPOS>ATOM
      1 N         138.1441  139.9881  162.0411 N.3     1  UNL1       -0.2710
      2 C         138.9258  140.7553  161.0162 C.3     1  UNL1        0.0735
      3 C         138.9821  142.2528  161.0824 C.3     1  UNL1        0.0331
      4 C         138.2567  142.9830  162.1734 C.3     1  UNL1        0.0570
      5 C         137.4750  142.2158  163.1983 C.3     1  UNL1        0.0331
      6 C         137.4187  140.7184  163.1322 C.3     1  UNL1        0.0735
      7 N         138.3129  144.4806  162.2397 N.3     1  UNL1       -0.2947
      8 H         137.3533  144.8065  162.3549 H       1  UNL1        0.1235
      9 C         139.1296  145.1541  163.3024 C.3     1  UNL1        0.0956
     10 C         140.4117  144.5318  163.7702 C.ar    1  UNL1       -0.0055
     11 C         140.4161  143.6394  164.9758 C.ar    1  UNL1       -0.0020
     12 C         141.6982  143.0171  165.4436 C.ar    1  UNL1        0.0120
     13 C         142.9760  143.2871  164.7058 C.ar    1  UNL1        0.0682
     14 CL        144.2581  142.6648  165.1736 Cl      1  UNL1       -0.0814
     15 C         142.9716  144.1795  163.5001 C.ar    1  UNL1        0.0679
     16 CL        144.2493  144.4496  162.7623 Cl      1  UNL1       -0.0814
     17 C         141.6894  144.8019  163.0323 C.ar    1  UNL1        0.0093
     18 C         138.0879  138.4906  161.9749 C.3     1  UNL1        0.0970
     19 C         138.7656  137.6673  163.0298 C.3     1  UNL1        0.1264
     20 C         142.8201  137.8490  161.0862 C.ar    1  UNL1        0.1593
     21 C         143.9888  138.4107  161.8402 C.ar    1  UNL1        0.1357
     22 N         143.8059  138.9119  163.2422 N.ar    1  UNL1       -0.2392
     23 C         142.4545  138.8513  163.8901 C.ar    1  UNL1        0.0975
     24 C         142.2716  139.3524  165.2920 C.ar    1  UNL1        0.0255
     25 C         140.9202  139.2918  165.9399 C.ar    1  UNL1        0.0623
     26 C         139.7514  138.7301  165.1858 C.ar    1  UNL1        0.2611
     27 O         138.3999  138.6695  165.8337 O.2     1  UNL1       -0.2670
     28 N         139.9342  138.2290  163.7839 N.ar    1  UNL1       -0.2926
     29 C         141.2858  138.2896  163.1360 C.ar    1  UNL1        0.0832
     30 C         141.4686  137.7884  161.7340 C.ar    1  UNL1        0.0573
     31 C         142.6727  138.2359  158.5213 C.3     1  UNL1        0.2525
     32 O         143.0029  137.3479  159.6842 O.3     1  UNL1       -0.4698
@<TRIPOS>BOND
     1    31    32    1
     2    32    20    1
     3    20    21   ar
     4    21    22   ar
     5    22    23   ar
     6    23    24   ar
     7    24    25   ar
     8    25    26   ar
     9    26    27    2
    10    26    28   ar
    11    28    19    1
    12    19    18    1
    13    18     1    1
    14     1     2    1
    15     2     3    1
    16     3     4    1
    17     4     7    1
    18     7     9    1
    19     9    10    1
    20    10    11   ar
    21    11    12   ar
    22    12    13   ar
    23    13    14    1
    24    13    15   ar
    25    15    16    1
    26    15    17   ar
    27     4     5    1
    28     5     6    1
    29    28    29   ar
    30    29    30   ar
    31    30    20   ar
    32    29    23   ar
    33     6     1    1
    34    17    10   ar
    35     7     8    1
