@<TRIPOS>MOLECULE
*****
 23 23 0 0 0
SMALL
GASTEIGER

@<TRIPOS>ATOM
      1 N         138.6751  138.7754  164.0921 N.4     1  UNL1        0.2970
      2 C         139.0306  138.0228  162.8442 C.3     1  UNL1        0.1086
      3 C         138.2515  138.2513  161.5830 C.3     1  UNL1        0.0671
      4 C         138.3196  139.5279  165.3400 C.3     1  UNL1        0.1086
      5 C         137.9461  138.7806  166.5858 C.3     1  UNL1        0.0671
      6 C         137.9352  139.7888  163.2702 C.3     1  UNL1        0.1084
      7 C         137.8717  141.2181  163.7209 C.3     1  UNL1        0.0610
      8 C         137.5715  142.3041  162.7308 C.3     1  UNL1        0.0061
      9 C         137.6802  143.7431  163.1399 C.3     1  UNL1        0.0002
     10 C         139.0200  144.3287  163.4743 C.3     1  UNL1        0.0000
     11 C         139.7059  143.5072  165.8417 C.3     1  UNL1        0.0000
     12 C         139.3731  144.6273  164.9012 C.3     1  UNL1        0.0000
     13 C         139.4150  137.7619  164.9140 C.3     1  UNL1        0.1084
     14 C         140.7872  137.3187  164.5010 C.3     1  UNL1        0.0614
     15 C         141.9972  138.0120  165.0535 C.3     1  UNL1        0.0108
     16 C         141.8496  139.3218  165.7694 C.3     1  UNL1        0.0266
     17 C         142.1360  140.6064  165.0497 C.ar    1  UNL1       -0.0221
     18 C         142.9798  141.6602  165.7033 C.ar    1  UNL1       -0.0034
     19 C         143.2662  142.9448  164.9837 C.ar    1  UNL1        0.0111
     20 C         142.7087  143.1755  163.6104 C.ar    1  UNL1        0.0577
     21 CL        142.9951  144.4600  162.8907 Cl      1  UNL1       -0.0822
     22 C         141.8649  142.1216  162.9568 C.ar    1  UNL1        0.0111
     23 C         141.5785  140.8370  163.6764 C.ar    1  UNL1       -0.0034
@<TRIPOS>UNITY_ATOM_ATTR
1 1
charge 1
@<TRIPOS>BOND
     1    11    12    1
     2    12    10    1
     3    10     9    1
     4     9     8    1
     5     8     7    1
     6     7     6    1
     7     6     1    1
     8     1     2    1
     9     2     3    1
    10     1     4    1
    11     4     5    1
    12     1    13    1
    13    13    14    1
    14    14    15    1
    15    15    16    1
    16    16    17    1
    17    17    18   ar
    18    18    19   ar
    19    19    20   ar
    20    20    21    1
    21    20    22   ar
    22    22    23   ar
    23    23    17   ar
@<TRIPOS>MOLECULE
*****
 23 23 0 0 0
SMALL
GASTEIGER

@<TRIPOS>ATOM
      1 N         142.8331  139.0350  164.2833 N.4     1  UNL1        0.2970
      2 C         143.0091  138.2427  165.5447 C.3     1  UNL1        0.1086
      3 C         143.0403  138.9420  166.8714 C.3     1  UNL1        0.0671
      4 C         142.6570  139.8273  163.0218 C.3     1  UNL1        0.1086
      5 C         141.6496  140.9373  162.9678 C.3     1  UNL1        0.0671
      6 C         143.7436  140.0976  164.8236 C.3     1  UNL1        0.1084
      7 C         145.1118  140.2822  164.2369 C.3     1  UNL1        0.0610
      8 C         145.6029  141.6584  163.8977 C.3     1  UNL1        0.0061
      9 C         144.7287  142.8505  164.1518 C.3     1  UNL1        0.0002
     10 C         144.3061  143.7276  163.0107 C.3     1  UNL1        0.0000
     11 C         142.2807  145.1763  163.7517 C.3     1  UNL1        0.0000
     12 C         143.7019  145.0732  163.2829 C.3     1  UNL1        0.0000
     13 C         141.9225  137.9725  163.7430 C.3     1  UNL1        0.1084
     14 C         140.8556  137.3833  164.6175 C.3     1  UNL1        0.0614
     15 C         139.5481  138.0979  164.7902 C.3     1  UNL1        0.0108
     16 C         139.3557  139.0425  165.9393 C.3     1  UNL1        0.0266
     17 C         139.2471  140.5173  165.6878 C.ar    1  UNL1       -0.0221
     18 C         138.1760  141.0466  164.7809 C.ar    1  UNL1       -0.0034
     19 C         138.0674  142.5214  164.5294 C.ar    1  UNL1        0.0111
     20 C         139.0300  143.4669  165.1848 C.ar    1  UNL1        0.0577
     21 CL        138.9214  144.9416  164.9332 Cl      1  UNL1       -0.0822
     22 C         140.1011  142.9375  166.0916 C.ar    1  UNL1        0.0111
     23 C         140.2097  141.4628  166.3431 C.ar    1  UNL1       -0.0034
@<TRIPOS>UNITY_ATOM_ATTR
1 1
charge 1
@<TRIPOS>BOND
     1    11    12    1
     2    12    10    1
     3    10     9    1
     4     9     8    1
     5     8     7    1
     6     7     6    1
     7     6     1    1
     8     1     2    1
     9     2     3    1
    10     1     4    1
    11     4     5    1
    12     1    13    1
    13    13    14    1
    14    14    15    1
    15    15    16    1
    16    16    17    1
    17    17    18   ar
    18    18    19   ar
    19    19    20   ar
    20    20    21    1
    21    20    22   ar
    22    22    23   ar
    23    23    17   ar
@<TRIPOS>MOLECULE
*****
 23 23 0 0 0
SMALL
GASTEIGER

@<TRIPOS>ATOM
      1 N         142.5700  142.6186  163.8776 N.4     1  UNL1        0.2970
      2 C         143.7544  143.5222  164.0533 C.3     1  UNL1        0.1086
      3 C         143.5822  145.0097  163.9674 C.3     1  UNL1        0.0671
      4 C         141.3856  141.7151  163.7020 C.3     1  UNL1        0.1086
      5 C         141.2881  140.8328  162.4929 C.3     1  UNL1        0.0671
      6 C         141.6593  143.7274  164.3150 C.3     1  UNL1        0.1084
      7 C         140.4934  143.4310  165.2109 C.3     1  UNL1        0.0610
      8 C         139.3019  144.3422  165.2175 C.3     1  UNL1        0.0061
      9 C         138.0093  143.8912  164.6046 C.3     1  UNL1        0.0002
     10 C         137.7263  142.4270  164.4434 C.3     1  UNL1        0.0000
     11 C         137.9560  142.6616  161.8662 C.3     1  UNL1        0.0000
     12 C         137.6434  141.8257  163.0718 C.3     1  UNL1        0.0000
     13 C         143.4807  141.5099  163.4403 C.3     1  UNL1        0.1084
     14 C         144.4557  140.9130  164.4115 C.3     1  UNL1        0.0614
     15 C         144.5664  139.4229  164.5430 C.3     1  UNL1        0.0108
     16 C         143.8422  138.7116  165.6473 C.3     1  UNL1        0.0266
     17 C         142.3521  138.8344  165.7680 C.ar    1  UNL1       -0.0221
     18 C         141.4580  138.0097  164.8903 C.ar    1  UNL1       -0.0034
     19 C         139.9679  138.1326  165.0110 C.ar    1  UNL1        0.0111
     20 C         139.3719  139.0802  166.0094 C.ar    1  UNL1        0.0577
     21 CL        137.8819  139.2031  166.1301 Cl      1  UNL1       -0.0822
     22 C         140.2660  139.9049  166.8871 C.ar    1  UNL1        0.0111
     23 C         141.7561  139.7820  166.7664 C.ar    1  UNL1       -0.0034
@<TRIPOS>UNITY_ATOM_ATTR
1 1
charge 1
@<TRIPOS>BOND
     1    11    12    1
     2    12    10    1
     3    10     9    1
     4     9     8    1
     5     8     7    1
     6     7     6    1
     7     6     1    1
     8     1     2    1
     9     2     3    1
    10     1     4    1
    11     4     5    1
    12     1    13    1
    13    13    14    1
    14    14    15    1
    15    15    16    1
    16    16    17    1
    17    17    18   ar
    18    18    19   ar
    19    19    20   ar
    20    20    21    1
    21    20    22   ar
    22    22    23   ar
    23    23    17   ar
@<TRIPOS>MOLECULE
*****
 23 23 0 0 0
SMALL
GASTEIGER

@<TRIPOS>ATOM
      1 N         139.9870  142.6655  163.8528 N.4     1  UNL1        0.2970
      2 C         139.2110  143.2320  165.0047 C.3     1  UNL1        0.1086
      3 C         138.0977  144.2051  164.7528 C.3     1  UNL1        0.0671
      4 C         140.7630  142.0990  162.7009 C.3     1  UNL1        0.1086
      5 C         141.1986  140.6638  162.7235 C.3     1  UNL1        0.0671
      6 C         140.0169  141.3278  164.5308 C.3     1  UNL1        0.1084
      7 C         139.9473  141.2435  166.0269 C.3     1  UNL1        0.0610
      8 C         139.3114  140.0536  166.6822 C.3     1  UNL1        0.0061
      9 C         138.3117  139.2274  165.9286 C.3     1  UNL1        0.0002
     10 C         138.6626  137.8341  165.4977 C.3     1  UNL1        0.0000
     11 C         141.0783  137.4279  164.6323 C.3     1  UNL1        0.0000
     12 C         139.6157  137.6187  164.3597 C.3     1  UNL1        0.0000
     13 C         139.9571  144.0032  163.1748 C.3     1  UNL1        0.1084
     14 C         141.2366  144.6470  162.7294 C.3     1  UNL1        0.0614
     15 C         142.0527  145.4455  163.7022 C.3     1  UNL1        0.0108
     16 C         143.4734  145.0568  163.9858 C.3     1  UNL1        0.0266
     17 C         143.8447  143.6086  164.1080 C.ar    1  UNL1       -0.0221
     18 C         143.3602  142.8064  165.2792 C.ar    1  UNL1       -0.0034
     19 C         143.7315  141.3582  165.4014 C.ar    1  UNL1        0.0111
     20 C         144.5873  140.7122  164.3524 C.ar    1  UNL1        0.0577
     21 CL        144.9585  139.2641  164.4746 Cl      1  UNL1       -0.0822
     22 C         145.0717  141.5145  163.1812 C.ar    1  UNL1        0.0111
     23 C         144.7005  142.9627  163.0591 C.ar    1  UNL1       -0.0034
@<TRIPOS>UNITY_ATOM_ATTR
1 1
charge 1
@<TRIPOS>BOND
     1    11    12    1
     2    12    10    1
     3    10     9    1
     4     9     8    1
     5     8     7    1
     6     7     6    1
     7     6     1    1
     8     1     2    1
     9     2     3    1
    10     1     4    1
    11     4     5    1
    12     1    13    1
    13    13    14    1
    14    14    15    1
    15    15    16    1
    16    16    17    1
    17    17    18   ar
    18    18    19   ar
    19    19    20   ar
    20    20    21    1
    21    20    22   ar
    22    22    23   ar
    23    23    17   ar
@<TRIPOS>MOLECULE
*****
 23 23 0 0 0
SMALL
GASTEIGER

@<TRIPOS>ATOM
      1 N         139.6781  140.8063  166.1346 N.4     1  UNL1        0.2970
      2 C         139.5237  139.9944  167.3864 C.3     1  UNL1        0.1086
      3 C         140.5599  140.0788  168.4677 C.3     1  UNL1        0.0671
      4 C         139.8326  141.6182  164.8829 C.3     1  UNL1        0.1086
      5 C         138.6804  142.4290  164.3678 C.3     1  UNL1        0.0671
      6 C         140.9061  141.4520  166.7049 C.3     1  UNL1        0.1084
      7 C         141.9647  141.9903  165.7886 C.3     1  UNL1        0.0610
      8 C         143.2342  142.5517  166.3573 C.3     1  UNL1        0.0061
      9 C         144.1835  143.3047  165.4731 C.3     1  UNL1        0.0002
     10 C         143.8619  143.4989  164.0209 C.3     1  UNL1        0.0000
     11 C         142.0298  145.3315  163.8349 C.3     1  UNL1        0.0000
     12 C         143.4133  144.8416  163.5252 C.3     1  UNL1        0.0000
     13 C         138.4501  140.1607  165.5644 C.3     1  UNL1        0.1084
     14 C         138.3557  138.6656  165.4877 C.3     1  UNL1        0.0614
     15 C         139.1201  137.9188  164.4351 C.3     1  UNL1        0.0108
     16 C         140.4487  137.3062  164.7658 C.3     1  UNL1        0.0266
     17 C         141.7098  138.0904  164.5542 C.ar    1  UNL1       -0.0221
     18 C         141.9599  138.7682  163.2397 C.ar    1  UNL1       -0.0034
     19 C         143.2209  139.5524  163.0281 C.ar    1  UNL1        0.0111
     20 C         144.2318  139.6590  164.1311 C.ar    1  UNL1        0.0577
     21 CL        145.4929  140.4432  163.9196 Cl      1  UNL1       -0.0822
     22 C         143.9817  138.9812  165.4457 C.ar    1  UNL1        0.0111
     23 C         142.7207  138.1970  165.6572 C.ar    1  UNL1       -0.0034
@<TRIPOS>UNITY_ATOM_ATTR
1 1
charge 1
@<TRIPOS>BOND
     1    11    12    1
     2    12    10    1
     3    10     9    1
     4     9     8    1
     5     8     7    1
     6     7     6    1
     7     6     1    1
     8     1     2    1
     9     2     3    1
    10     1     4    1
    11     4     5    1
    12     1    13    1
    13    13    14    1
    14    14    15    1
    15    15    16    1
    16    16    17    1
    17    17    18   ar
    18    18    19   ar
    19    19    20   ar
    20    20    21    1
    21    20    22   ar
    22    22    23   ar
    23    23    17   ar
@<TRIPOS>MOLECULE
*****
 23 23 0 0 0
SMALL
GASTEIGER

@<TRIPOS>ATOM
      1 N         140.3458  143.3806  163.7653 N.4     1  UNL1        0.2970
      2 C         140.9174  142.0553  163.3568 C.3     1  UNL1        0.1086
      3 C         141.6845  141.9329  162.0736 C.3     1  UNL1        0.0671
      4 C         139.7741  144.7058  164.1739 C.3     1  UNL1        0.1086
      5 C         138.8230  144.7878  165.3308 C.3     1  UNL1        0.0671
      6 C         139.2125  142.6794  164.4539 C.3     1  UNL1        0.1084
      7 C         139.3765  141.2609  164.9134 C.3     1  UNL1        0.0610
      8 C         139.3633  140.9410  166.3788 C.3     1  UNL1        0.0061
      9 C         139.1091  139.5357  166.8374 C.3     1  UNL1        0.0002
     10 C         138.2786  138.6113  165.9973 C.3     1  UNL1        0.0000
     11 C         139.0191  137.7855  163.6479 C.3     1  UNL1        0.0000
     12 C         138.9442  137.5825  165.1322 C.3     1  UNL1        0.0000
     13 C         141.4790  144.0817  163.0768 C.3     1  UNL1        0.1084
     14 C         142.3119  145.0778  163.8280 C.3     1  UNL1        0.0614
     15 C         143.7973  144.8929  163.9240 C.3     1  UNL1        0.0108
     16 C         144.3844  144.1187  165.0667 C.3     1  UNL1        0.0266
     17 C         144.0417  142.6694  165.2454 C.ar    1  UNL1       -0.0221
     18 C         144.6090  141.6436  164.3096 C.ar    1  UNL1       -0.0034
     19 C         144.2663  140.1943  164.4883 C.ar    1  UNL1        0.0111
     20 C         143.3562  139.7707  165.6028 C.ar    1  UNL1        0.0577
     21 CL        143.0135  138.3213  165.7815 Cl      1  UNL1       -0.0822
     22 C         142.7889  140.7964  166.5387 C.ar    1  UNL1        0.0111
     23 C         143.1316  142.2458  166.3600 C.ar    1  UNL1       -0.0034
@<TRIPOS>UNITY_ATOM_ATTR
1 1
charge 1
@<TRIPOS>BOND
     1    11    12    1
     2    12    10    1
     3    10     9    1
     4     9     8    1
     5     8     7    1
     6     7     6    1
     7     6     1    1
     8     1     2    1
     9     2     3    1
    10     1     4    1
    11     4     5    1
    12     1    13    1
    13    13    14    1
    14    14    15    1
    15    15    16    1
    16    16    17    1
    17    17    18   ar
    18    18    19   ar
    19    19    20   ar
    20    20    21    1
    21    20    22   ar
    22    22    23   ar
    23    23    17   ar
@<TRIPOS>MOLECULE
*****
 23 23 0 0 0
SMALL
GASTEIGER

@<TRIPOS>ATOM
      1 N         138.1266  139.8754  163.5679 N.4     1  UNL1        0.2970
      2 C         137.9553  139.5210  162.1204 C.3     1  UNL1        0.1086
      3 C         137.7791  140.6048  161.0986 C.3     1  UNL1        0.0671
      4 C         138.2978  140.2299  165.0153 C.3     1  UNL1        0.1086
      5 C         138.2045  139.1625  166.0650 C.3     1  UNL1        0.0671
      6 C         138.7066  138.5175  163.8318 C.3     1  UNL1        0.1084
      7 C         139.6606  137.9055  162.8492 C.3     1  UNL1        0.0610
      8 C         140.9537  137.3148  163.3276 C.3     1  UNL1        0.0061
      9 C         141.4074  137.5464  164.7384 C.3     1  UNL1        0.0002
     10 C         142.0938  138.8289  165.1046 C.3     1  UNL1        0.0000
     11 C         144.4228  139.3544  164.0801 C.3     1  UNL1        0.0000
     12 C         143.5880  138.8709  165.2288 C.3     1  UNL1        0.0000
     13 C         137.5466  141.2334  163.3039 C.3     1  UNL1        0.1084
     14 C         137.6447  142.3066  164.3474 C.3     1  UNL1        0.0614
     15 C         138.0317  143.7015  163.9545 C.3     1  UNL1        0.0108
     16 C         139.0123  144.4709  164.7889 C.3     1  UNL1        0.0266
     17 C         140.4639  144.0932  164.7796 C.ar    1  UNL1       -0.0221
     18 C         141.4394  144.8838  163.9590 C.ar    1  UNL1       -0.0034
     19 C         142.8910  144.5060  163.9496 C.ar    1  UNL1        0.0111
     20 C         143.3672  143.3377  164.7609 C.ar    1  UNL1        0.0577
     21 CL        144.8188  142.9600  164.7516 Cl      1  UNL1       -0.0822
     22 C         142.3917  142.5471  165.5815 C.ar    1  UNL1        0.0111
     23 C         140.9401  142.9249  165.5909 C.ar    1  UNL1       -0.0034
@<TRIPOS>UNITY_ATOM_ATTR
1 1
charge 1
@<TRIPOS>BOND
     1    11    12    1
     2    12    10    1
     3    10     9    1
     4     9     8    1
     5     8     7    1
     6     7     6    1
     7     6     1    1
     8     1     2    1
     9     2     3    1
    10     1     4    1
    11     4     5    1
    12     1    13    1
    13    13    14    1
    14    14    15    1
    15    15    16    1
    16    16    17    1
    17    17    18   ar
    18    18    19   ar
    19    19    20   ar
    20    20    21    1
    21    20    22   ar
    22    22    23   ar
    23    23    17   ar
@<TRIPOS>MOLECULE
*****
 23 23 0 0 0
SMALL
GASTEIGER

@<TRIPOS>ATOM
      1 N         138.5338  139.7088  164.6538 N.4     1  UNL1        0.2970
      2 C         138.3870  139.8455  163.1673 C.3     1  UNL1        0.1086
      3 C         137.5623  140.9597  162.5944 C.3     1  UNL1        0.0671
      4 C         138.6805  139.5720  166.1404 C.3     1  UNL1        0.1086
      5 C         137.8085  138.6129  166.8950 C.3     1  UNL1        0.0671
      6 C         138.4139  141.1966  164.8025 C.3     1  UNL1        0.1084
      7 C         139.4579  141.9610  165.5612 C.3     1  UNL1        0.0610
      8 C         140.7260  142.3791  164.8777 C.3     1  UNL1        0.0061
      9 C         142.0162  142.4064  165.6422 C.3     1  UNL1        0.0002
     10 C         142.0115  142.2067  167.1288 C.3     1  UNL1        0.0000
     11 C         141.8916  139.7510  167.9685 C.3     1  UNL1        0.0000
     12 C         142.6798  141.0040  167.7261 C.3     1  UNL1        0.0000
     13 C         138.6537  138.2210  164.5052 C.3     1  UNL1        0.1084
     14 C         139.5081  137.6425  163.4164 C.3     1  UNL1        0.0614
     15 C         140.8716  137.1064  163.7379 C.3     1  UNL1        0.0108
     16 C         141.7413  137.8166  164.7326 C.3     1  UNL1        0.0266
     17 C         142.7320  138.8415  164.2657 C.ar    1  UNL1       -0.0221
     18 C         142.4136  139.7085  163.0838 C.ar    1  UNL1       -0.0034
     19 C         143.4043  140.7335  162.6169 C.ar    1  UNL1        0.0111
     20 C         144.7134  140.8914  163.3318 C.ar    1  UNL1        0.0577
     21 CL        145.7041  141.9163  162.8649 Cl      1  UNL1       -0.0822
     22 C         145.0318  140.0243  164.5137 C.ar    1  UNL1        0.0111
     23 C         144.0411  138.9994  164.9806 C.ar    1  UNL1       -0.0034
@<TRIPOS>UNITY_ATOM_ATTR
1 1
charge 1
@<TRIPOS>BOND
     1    11    12    1
     2    12    10    1
     3    10     9    1
     4     9     8    1
     5     8     7    1
     6     7     6    1
     7     6     1    1
     8     1     2    1
     9     2     3    1
    10     1     4    1
    11     4     5    1
    12     1    13    1
    13    13    14    1
    14    14    15    1
    15    15    16    1
    16    16    17    1
    17    17    18   ar
    18    18    19   ar
    19    19    20   ar
    20    20    21    1
    21    20    22   ar
    22    22    23   ar
    23    23    17   ar
@<TRIPOS>MOLECULE
*****
 23 23 0 0 0
SMALL
GASTEIGER

@<TRIPOS>ATOM
      1 N         139.6615  138.5831  165.5217 N.4     1  UNL1        0.2970
      2 C         140.9493  138.1625  164.8778 C.3     1  UNL1        0.1086
      3 C         142.0634  139.1531  164.7119 C.3     1  UNL1        0.0671
      4 C         138.3736  139.0036  166.1655 C.3     1  UNL1        0.1086
      5 C         137.5514  138.0027  166.9219 C.3     1  UNL1        0.0671
      6 C         140.4050  139.5843  166.3551 C.3     1  UNL1        0.1084
      7 C         139.7146  140.8310  166.8233 C.3     1  UNL1        0.0610
      8 C         140.3991  141.7485  167.7926 C.3     1  UNL1        0.0061
      9 C         141.6238  142.5054  167.3718 C.3     1  UNL1        0.0002
     10 C         142.9674  142.1205  167.9163 C.3     1  UNL1        0.0000
     11 C         144.4348  142.7210  169.9746 C.3     1  UNL1        0.0000
     12 C         143.1977  142.0983  169.3984 C.3     1  UNL1        0.0000
     13 C         138.9179  137.5818  164.6882 C.3     1  UNL1        0.1084
     14 C         138.9550  137.6764  163.1916 C.3     1  UNL1        0.0614
     15 C         138.3376  138.8551  162.4991 C.3     1  UNL1        0.0108
     16 C         139.1720  140.0606  162.1824 C.3     1  UNL1        0.0266
     17 C         139.0678  141.2900  163.0354 C.ar    1  UNL1       -0.0221
     18 C         137.7441  141.6893  163.6170 C.ar    1  UNL1       -0.0034
     19 C         137.6398  142.9187  164.4700 C.ar    1  UNL1        0.0111
     20 C         138.8593  143.7489  164.7415 C.ar    1  UNL1        0.0577
     21 CL        138.7550  144.9783  165.5945 Cl      1  UNL1       -0.0822
     22 C         140.1830  143.3496  164.1599 C.ar    1  UNL1        0.0111
     23 C         140.2873  142.1202  163.3068 C.ar    1  UNL1       -0.0034
@<TRIPOS>UNITY_ATOM_ATTR
1 1
charge 1
@<TRIPOS>BOND
     1    11    12    1
     2    12    10    1
     3    10     9    1
     4     9     8    1
     5     8     7    1
     6     7     6    1
     7     6     1    1
     8     1     2    1
     9     2     3    1
    10     1     4    1
    11     4     5    1
    12     1    13    1
    13    13    14    1
    14    14    15    1
    15    15    16    1
    16    16    17    1
    17    17    18   ar
    18    18    19   ar
    19    19    20   ar
    20    20    21    1
    21    20    22   ar
    22    22    23   ar
    23    23    17   ar
