@<TRIPOS>MOLECULE
*****
 27 30 0 0 0
SMALL
GASTEIGER

@<TRIPOS>ATOM
      1 N         141.2646  141.7388  169.3203 N.am    1  UNL1       -0.2403
      2 C         140.8786  141.1128  170.6276 C.2     1  UNL1        0.2505
      3 O         141.5713  141.5281  171.8916 O.2     1  UNL1       -0.2726
      4 C         139.8000  140.0713  170.6709 C.3     1  UNL1        0.1754
      5 N         139.1073  139.6560  169.4069 N.pl3   1  UNL1       -0.3084
      6 C         139.4933  140.2821  168.0996 C.ar    1  UNL1        0.1611
      7 N         138.8006  139.8667  166.8356 N.ar    1  UNL1       -0.2249
      8 C         139.1866  140.4928  165.5284 C.ar    1  UNL1        0.1195
      9 C         140.2653  141.5342  165.4850 C.ar    1  UNL1        0.1031
     10 N         140.9580  141.9496  166.7490 N.ar    1  UNL1       -0.2258
     11 C         140.5720  141.3235  168.0563 C.ar    1  UNL1        0.1691
     12 H         138.3993  138.9724  169.4354 H       1  UNL1        0.1487
     13 C         140.6513  142.1603  164.1777 C.ar    1  UNL1        0.0328
     14 C         141.5863  141.4430  163.2497 C.ar    1  UNL1        0.0044
     15 C         141.9723  142.0690  161.9423 C.ar    1  UNL1        0.0223
     16 C         141.4232  143.4124  161.5631 C.ar    1  UNL1        0.1161
     17 N         140.4882  144.1297  162.4911 N.ar    1  UNL1       -0.2465
     18 C         140.1023  143.5037  163.7984 C.ar    1  UNL1        0.0609
     19 C         139.1672  144.2210  164.7265 C.3     1  UNL1        0.0521
     20 C         141.8092  144.0385  160.2558 C.ar    1  UNL1        0.1757
     21 N         142.3425  143.3148  159.0550 N.ar    1  UNL1       -0.2024
     22 C         142.5925  144.3273  157.9768 C.ar    1  UNL1        0.2207
     23 N         142.2137  145.6767  158.5113 N.ar    1  UNL1       -0.1486
     24 N         141.7296  145.4982  159.9197 N.ar    1  UNL1       -0.2569
     25 H         141.4148  146.2135  160.5185 H       1  UNL1        0.1906
     26 C         143.7830  142.3740  169.3888 C.3     1  UNL1        0.0237
     27 C         142.3433  142.7803  169.2770 C.3     1  UNL1        0.0998
@<TRIPOS>BOND
     1    26    27    1
     2    27     1    1
     3     1     2   am
     4     2     3    2
     5     2     4    1
     6     4     5    1
     7     5     6    1
     8     6     7   ar
     9     7     8   ar
    10     8     9   ar
    11     9    13    1
    12    13    14   ar
    13    14    15   ar
    14    15    16   ar
    15    16    20    1
    16    20    21   ar
    17    21    22   ar
    18    22    23   ar
    19    23    24   ar
    20    16    17   ar
    21    17    18   ar
    22    18    19    1
    23     9    10   ar
    24    10    11   ar
    25    11     1    1
    26    11     6   ar
    27    18    13   ar
    28    24    20   ar
    29     5    12    1
    30    24    25    1
@<TRIPOS>MOLECULE
*****
 27 30 0 0 0
SMALL
GASTEIGER

@<TRIPOS>ATOM
      1 N         141.0711  141.4126  169.1022 N.am    1  UNL1       -0.2403
      2 C         141.3010  140.6222  170.3561 C.2     1  UNL1        0.2505
      3 O         140.6449  141.0418  171.6382 O.2     1  UNL1       -0.2726
      4 C         142.1870  139.4121  170.3281 C.3     1  UNL1        0.1754
      5 N         142.8431  138.9925  169.0461 N.pl3   1  UNL1       -0.3084
      6 C         142.6132  139.7829  167.7921 C.ar    1  UNL1        0.1611
      7 N         143.2692  139.3632  166.5102 N.ar    1  UNL1       -0.2249
      8 C         143.0393  140.1536  165.2563 C.ar    1  UNL1        0.1195
      9 C         142.1533  141.3637  165.2843 C.ar    1  UNL1        0.1031
     10 N         141.4972  141.7833  166.5662 N.ar    1  UNL1       -0.2258
     11 C         141.7271  140.9929  167.8202 C.ar    1  UNL1        0.1691
     12 H         143.4246  138.1983  169.0278 H       1  UNL1        0.1487
     13 C         141.9233  142.1541  164.0303 C.ar    1  UNL1        0.0328
     14 C         140.8048  141.7810  163.1031 C.ar    1  UNL1        0.0044
     15 C         140.5749  142.5714  161.8491 C.ar    1  UNL1        0.0223
     16 C         141.4635  143.7349  161.5223 C.ar    1  UNL1        0.1161
     17 N         142.5821  144.1079  162.4496 N.ar    1  UNL1       -0.2465
     18 C         142.8120  143.3175  163.7035 C.ar    1  UNL1        0.0609
     19 C         143.9305  143.6905  164.6308 C.3     1  UNL1        0.0521
     20 C         141.2336  144.5252  160.2684 C.ar    1  UNL1        0.1757
     21 N         142.2511  144.8018  159.2015 N.ar    1  UNL1       -0.2024
     22 C         141.5922  145.6254  158.1349 C.ar    1  UNL1        0.2207
     23 N         140.1675  145.8577  158.5426 N.ar    1  UNL1       -0.1486
     24 N         139.9459  145.1778  159.8612 N.ar    1  UNL1       -0.2569
     25 H         139.1032  145.1626  160.3700 H       1  UNL1        0.1906
     26 C         140.6428  143.8714  169.8238 C.3     1  UNL1        0.0237
     27 C         140.1851  142.6226  169.1302 C.3     1  UNL1        0.0998
@<TRIPOS>BOND
     1    26    27    1
     2    27     1    1
     3     1     2   am
     4     2     3    2
     5     2     4    1
     6     4     5    1
     7     5     6    1
     8     6     7   ar
     9     7     8   ar
    10     8     9   ar
    11     9    13    1
    12    13    14   ar
    13    14    15   ar
    14    15    16   ar
    15    16    20    1
    16    20    21   ar
    17    21    22   ar
    18    22    23   ar
    19    23    24   ar
    20    16    17   ar
    21    17    18   ar
    22    18    19    1
    23     9    10   ar
    24    10    11   ar
    25    11     1    1
    26    11     6   ar
    27    18    13   ar
    28    24    20   ar
    29     5    12    1
    30    24    25    1
@<TRIPOS>MOLECULE
*****
 27 30 0 0 0
SMALL
GASTEIGER

@<TRIPOS>ATOM
      1 N         140.8395  141.7015  168.6521 N.am    1  UNL1       -0.2403
      2 C         140.8664  141.7666  170.1504 C.2     1  UNL1        0.2505
      3 O         141.8072  142.7072  170.8435 O.2     1  UNL1       -0.2726
      4 C         139.9526  140.8911  170.9558 C.3     1  UNL1        0.1754
      5 N         139.0118  139.9506  170.2628 N.pl3   1  UNL1       -0.3084
      6 C         138.9849  139.8854  168.7644 C.ar    1  UNL1        0.1611
      7 N         138.0441  138.9449  168.0714 N.ar    1  UNL1       -0.2249
      8 C         138.0171  138.8798  166.5731 C.ar    1  UNL1        0.1195
      9 C         138.9309  139.7552  165.7678 C.ar    1  UNL1        0.1031
     10 N         139.8717  140.6958  166.4608 N.ar    1  UNL1       -0.2258
     11 C         139.8987  140.7609  167.9591 C.ar    1  UNL1        0.1691
     12 H         138.4121  139.3760  170.7914 H       1  UNL1        0.1487
     13 C         138.9039  139.6900  164.2694 C.ar    1  UNL1        0.0328
     14 C         137.9458  140.5489  163.4985 C.ar    1  UNL1        0.0044
     15 C         137.9188  140.4837  162.0001 C.ar    1  UNL1        0.0223
     16 C         138.8500  139.5597  161.2727 C.ar    1  UNL1        0.1161
     17 N         139.8081  138.7008  162.0437 N.ar    1  UNL1       -0.2465
     18 C         139.8351  138.7660  163.5420 C.ar    1  UNL1        0.0609
     19 C         140.7933  137.9071  164.3130 C.3     1  UNL1        0.0521
     20 C         138.8230  139.4945  159.7744 C.ar    1  UNL1        0.1757
     21 N         139.8250  138.7955  158.9041 N.ar    1  UNL1       -0.2024
     22 C         139.4106  138.9859  157.4751 C.ar    1  UNL1        0.2207
     23 N         138.1524  139.8026  157.4622 N.ar    1  UNL1       -0.1486
     24 N         137.7893  140.1169  158.8833 N.ar    1  UNL1       -0.2569
     25 H         137.0095  140.6399  159.1791 H       1  UNL1        0.1906
     26 C         143.1900  142.1891  167.6586 C.3     1  UNL1        0.0237
     27 C         141.7533  142.5769  167.8468 C.3     1  UNL1        0.0998
@<TRIPOS>BOND
     1    26    27    1
     2    27     1    1
     3     1     2   am
     4     2     3    2
     5     2     4    1
     6     4     5    1
     7     5     6    1
     8     6     7   ar
     9     7     8   ar
    10     8     9   ar
    11     9    13    1
    12    13    14   ar
    13    14    15   ar
    14    15    16   ar
    15    16    20    1
    16    20    21   ar
    17    21    22   ar
    18    22    23   ar
    19    23    24   ar
    20    16    17   ar
    21    17    18   ar
    22    18    19    1
    23     9    10   ar
    24    10    11   ar
    25    11     1    1
    26    11     6   ar
    27    18    13   ar
    28    24    20   ar
    29     5    12    1
    30    24    25    1
@<TRIPOS>MOLECULE
*****
 27 30 0 0 0
SMALL
GASTEIGER

@<TRIPOS>ATOM
      1 N         141.6996  138.2510  159.4528 N.am    1  UNL1       -0.2403
      2 C         141.6490  138.1121  157.9602 C.2     1  UNL1        0.2505
      3 O         142.8457  137.6020  157.2133 O.2     1  UNL1       -0.2726
      4 C         140.4017  138.4834  157.2143 C.3     1  UNL1        0.1754
      5 N         139.2050  138.9936  157.9610 N.pl3   1  UNL1       -0.3084
      6 C         139.2556  139.1325  159.4538 C.ar    1  UNL1        0.1611
      7 N         138.0590  139.6427  160.2006 N.ar    1  UNL1       -0.2249
      8 C         138.1096  139.7816  161.6932 C.ar    1  UNL1        0.1195
      9 C         139.3569  139.4103  162.4391 C.ar    1  UNL1        0.1031
     10 N         140.5536  138.9001  161.6924 N.ar    1  UNL1       -0.2258
     11 C         140.5029  138.7612  160.1997 C.ar    1  UNL1        0.1691
     12 H         138.3864  139.2373  157.4715 H       1  UNL1        0.1487
     13 C         139.4076  139.5492  163.9319 C.ar    1  UNL1        0.0328
     14 C         138.6080  138.6224  164.7989 C.ar    1  UNL1        0.0044
     15 C         138.6586  138.7613  166.2916 C.ar    1  UNL1        0.0223
     16 C         139.5088  139.8270  166.9173 C.ar    1  UNL1        0.1161
     17 N         140.3084  140.7537  166.0502 N.ar    1  UNL1       -0.2465
     18 C         140.2578  140.6148  164.5575 C.ar    1  UNL1        0.0609
     19 C         141.0574  141.5416  163.6904 C.3     1  UNL1        0.0521
     20 C         139.5594  139.9659  168.4099 C.ar    1  UNL1        0.1757
     21 N         140.7327  140.4468  169.2114 N.ar    1  UNL1       -0.2024
     22 C         140.3441  140.4264  170.6600 C.ar    1  UNL1        0.2207
     23 N         138.9306  139.9330  170.7539 N.ar    1  UNL1       -0.1486
     24 N         138.4457  139.6484  169.3632 N.ar    1  UNL1       -0.2569
     25 H         137.5532  139.3122  169.1191 H       1  UNL1        0.1906
     26 C         143.9503  138.9364  160.5552 C.3     1  UNL1        0.0237
     27 C         142.9469  137.8797  160.1988 C.3     1  UNL1        0.0998
@<TRIPOS>BOND
     1    26    27    1
     2    27     1    1
     3     1     2   am
     4     2     3    2
     5     2     4    1
     6     4     5    1
     7     5     6    1
     8     6     7   ar
     9     7     8   ar
    10     8     9   ar
    11     9    13    1
    12    13    14   ar
    13    14    15   ar
    14    15    16   ar
    15    16    20    1
    16    20    21   ar
    17    21    22   ar
    18    22    23   ar
    19    23    24   ar
    20    16    17   ar
    21    17    18   ar
    22    18    19    1
    23     9    10   ar
    24    10    11   ar
    25    11     1    1
    26    11     6   ar
    27    18    13   ar
    28    24    20   ar
    29     5    12    1
    30    24    25    1
@<TRIPOS>MOLECULE
*****
 27 30 0 0 0
SMALL
GASTEIGER

@<TRIPOS>ATOM
      1 N         143.2675  140.2045  160.3164 N.am    1  UNL1       -0.2403
      2 C         143.7093  140.2680  158.8843 C.2     1  UNL1        0.2505
      3 O         143.7247  139.0227  158.0483 O.2     1  UNL1       -0.2726
      4 C         144.1356  141.5768  158.2883 C.3     1  UNL1        0.1754
      5 N         144.1202  142.8221  159.1243 N.pl3   1  UNL1       -0.3084
      6 C         143.6784  142.7587  160.5564 C.ar    1  UNL1        0.1611
      7 N         143.6630  144.0040  161.3924 N.ar    1  UNL1       -0.2249
      8 C         143.2212  143.9405  162.8244 C.ar    1  UNL1        0.1195
      9 C         142.7948  142.6317  163.4205 C.ar    1  UNL1        0.1031
     10 N         142.8102  141.3864  162.5845 N.ar    1  UNL1       -0.2258
     11 C         143.2520  141.4499  161.1524 C.ar    1  UNL1        0.1691
     12 H         144.4001  143.6811  158.7331 H       1  UNL1        0.1487
     13 C         142.3530  142.5683  164.8526 C.ar    1  UNL1        0.0328
     14 C         143.3338  142.1947  165.9242 C.ar    1  UNL1        0.0044
     15 C         142.8920  142.1312  167.3563 C.ar    1  UNL1        0.0223
     16 C         141.4693  142.4414  167.7167 C.ar    1  UNL1        0.1161
     17 N         140.4885  142.8150  166.6450 N.ar    1  UNL1       -0.2465
     18 C         140.9303  142.8784  165.2130 C.ar    1  UNL1        0.0609
     19 C         139.9495  143.2520  164.1413 C.3     1  UNL1        0.0521
     20 C         141.0275  142.3779  169.1487 C.ar    1  UNL1        0.1757
     21 N         141.5481  141.4332  170.1910 N.ar    1  UNL1       -0.2024
     22 C         140.8299  141.7195  171.4764 C.ar    1  UNL1        0.2207
     23 N         139.8653  142.8412  171.2284 N.ar    1  UNL1       -0.1486
     24 N         139.9875  143.2481  169.7898 N.ar    1  UNL1       -0.2569
     25 H         139.4750  143.9611  169.3446 H       1  UNL1        0.1906
     26 C         143.8671  137.9612  161.4818 C.3     1  UNL1        0.0237
     27 C         142.8411  138.8957  160.9124 C.3     1  UNL1        0.0998
@<TRIPOS>BOND
     1    26    27    1
     2    27     1    1
     3     1     2   am
     4     2     3    2
     5     2     4    1
     6     4     5    1
     7     5     6    1
     8     6     7   ar
     9     7     8   ar
    10     8     9   ar
    11     9    13    1
    12    13    14   ar
    13    14    15   ar
    14    15    16   ar
    15    16    20    1
    16    20    21   ar
    17    21    22   ar
    18    22    23   ar
    19    23    24   ar
    20    16    17   ar
    21    17    18   ar
    22    18    19    1
    23     9    10   ar
    24    10    11   ar
    25    11     1    1
    26    11     6   ar
    27    18    13   ar
    28    24    20   ar
    29     5    12    1
    30    24    25    1
@<TRIPOS>MOLECULE
*****
 27 30 0 0 0
SMALL
GASTEIGER

@<TRIPOS>ATOM
      1 N         140.4635  139.0395  159.8466 N.am    1  UNL1       -0.2403
      2 C         140.5469  138.4591  158.4660 C.2     1  UNL1        0.2505
      3 O         139.2981  138.2612  157.6589 O.2     1  UNL1       -0.2726
      4 C         141.8791  138.0766  157.8923 C.3     1  UNL1        0.1754
      5 N         143.1279  138.2745  158.6994 N.pl3   1  UNL1       -0.3084
      6 C         143.0446  138.8549  160.0801 C.ar    1  UNL1        0.1611
      7 N         144.2933  139.0528  160.8871 N.ar    1  UNL1       -0.2249
      8 C         144.2100  139.6332  162.2677 C.ar    1  UNL1        0.1195
      9 C         142.8778  140.0157  162.8413 C.ar    1  UNL1        0.1031
     10 N         141.6290  139.8178  162.0343 N.ar    1  UNL1       -0.2258
     11 C         141.7124  139.2374  160.6537 C.ar    1  UNL1        0.1691
     12 H         144.0022  138.0234  158.3229 H       1  UNL1        0.1487
     13 C         142.7944  140.5961  164.2220 C.ar    1  UNL1        0.0328
     14 C         142.9337  142.0760  164.4231 C.ar    1  UNL1        0.0044
     15 C         142.8504  142.6564  165.8038 C.ar    1  UNL1        0.0223
     16 C         142.6278  141.7568  166.9834 C.ar    1  UNL1        0.1161
     17 N         142.4885  140.2768  166.7822 N.ar    1  UNL1       -0.2465
     18 C         142.5719  139.6965  165.4015 C.ar    1  UNL1        0.0609
     19 C         142.4326  138.2165  165.2003 C.3     1  UNL1        0.0521
     20 C         142.5444  142.3371  168.3640 C.ar    1  UNL1        0.1757
     21 N         143.6923  142.5296  169.3103 N.ar    1  UNL1       -0.2024
     22 C         143.1559  143.1383  170.5719 C.ar    1  UNL1        0.2207
     23 N         141.6765  143.3221  170.4053 N.ar    1  UNL1       -0.1486
     24 N         141.2986  142.8269  169.0408 N.ar    1  UNL1       -0.2569
     25 H         140.3921  142.8240  168.6568 H       1  UNL1        0.1906
     26 C         138.4038  138.4722  161.3251 C.3     1  UNL1        0.0237
     27 C         139.1314  139.4220  160.4202 C.3     1  UNL1        0.0998
@<TRIPOS>BOND
     1    26    27    1
     2    27     1    1
     3     1     2   am
     4     2     3    2
     5     2     4    1
     6     4     5    1
     7     5     6    1
     8     6     7   ar
     9     7     8   ar
    10     8     9   ar
    11     9    13    1
    12    13    14   ar
    13    14    15   ar
    14    15    16   ar
    15    16    20    1
    16    20    21   ar
    17    21    22   ar
    18    22    23   ar
    19    23    24   ar
    20    16    17   ar
    21    17    18   ar
    22    18    19    1
    23     9    10   ar
    24    10    11   ar
    25    11     1    1
    26    11     6   ar
    27    18    13   ar
    28    24    20   ar
    29     5    12    1
    30    24    25    1
@<TRIPOS>MOLECULE
*****
 27 30 0 0 0
SMALL
GASTEIGER

@<TRIPOS>ATOM
      1 N         141.1881  141.9492  167.4136 N.am    1  UNL1       -0.2403
      2 C         141.0978  142.1890  168.8915 C.2     1  UNL1        0.2505
      3 O         140.3369  143.3713  169.4144 O.2     1  UNL1       -0.2726
      4 C         141.7683  141.2465  169.8466 C.3     1  UNL1        0.1754
      5 N         142.5291  140.0643  169.3238 N.pl3   1  UNL1       -0.3084
      6 C         142.6195  139.8245  167.8458 C.ar    1  UNL1        0.1611
      7 N         143.3803  138.6422  167.3230 N.ar    1  UNL1       -0.2249
      8 C         143.4707  138.4024  165.8451 C.ar    1  UNL1        0.1195
      9 C         142.8001  139.3448  164.8900 C.ar    1  UNL1        0.1031
     10 N         142.0393  140.5271  165.4128 N.ar    1  UNL1       -0.2258
     11 C         141.9490  140.7669  166.8907 C.ar    1  UNL1        0.1691
     12 H         142.9692  139.4458  169.9507 H       1  UNL1        0.1487
     13 C         142.8905  139.1050  163.4120 C.ar    1  UNL1        0.0328
     14 C         143.8226  139.9290  162.5740 C.ar    1  UNL1        0.0044
     15 C         143.9130  139.6891  161.0961 C.ar    1  UNL1        0.0223
     16 C         143.0712  138.6253  160.4561 C.ar    1  UNL1        0.1161
     17 N         142.1390  137.8013  161.2941 N.ar    1  UNL1       -0.2465
     18 C         142.0487  138.0411  162.7720 C.ar    1  UNL1        0.0609
     19 C         141.1165  137.2171  163.6100 C.3     1  UNL1        0.0521
     20 C         143.1615  138.3854  158.9782 C.ar    1  UNL1        0.1757
     21 N         142.6155  137.1975  158.2427 N.ar    1  UNL1       -0.2024
     22 C         142.9302  137.3692  156.7862 C.ar    1  UNL1        0.2207
     23 N         143.6707  138.6633  156.6215 N.ar    1  UNL1       -0.1486
     24 N         143.8136  139.2913  157.9762 N.ar    1  UNL1       -0.2569
     25 H         144.2575  140.1477  158.1731 H       1  UNL1        0.1906
     26 C         139.3317  142.4342  165.6618 C.3     1  UNL1        0.0237
     27 C         140.5176  142.8916  166.4585 C.3     1  UNL1        0.0998
@<TRIPOS>BOND
     1    26    27    1
     2    27     1    1
     3     1     2   am
     4     2     3    2
     5     2     4    1
     6     4     5    1
     7     5     6    1
     8     6     7   ar
     9     7     8   ar
    10     8     9   ar
    11     9    13    1
    12    13    14   ar
    13    14    15   ar
    14    15    16   ar
    15    16    20    1
    16    20    21   ar
    17    21    22   ar
    18    22    23   ar
    19    23    24   ar
    20    16    17   ar
    21    17    18   ar
    22    18    19    1
    23     9    10   ar
    24    10    11   ar
    25    11     1    1
    26    11     6   ar
    27    18    13   ar
    28    24    20   ar
    29     5    12    1
    30    24    25    1
@<TRIPOS>MOLECULE
*****
 27 30 0 0 0
SMALL
GASTEIGER

@<TRIPOS>ATOM
      1 N         140.7422  139.7087  160.2931 N.am    1  UNL1       -0.2403
      2 C         140.3755  139.5215  158.8508 C.2     1  UNL1        0.2505
      3 O         141.3987  139.0192  157.8757 O.2     1  UNL1       -0.2726
      4 C         138.9854  139.8367  158.3834 C.3     1  UNL1        0.1754
      5 N         137.9622  140.3390  159.3583 N.pl3   1  UNL1       -0.3084
      6 C         138.3289  140.5262  160.8008 C.ar    1  UNL1        0.1611
      7 N         137.3057  141.0285  161.7757 N.ar    1  UNL1       -0.2249
      8 C         137.6724  141.2157  163.2180 C.ar    1  UNL1        0.1195
      9 C         139.0625  140.9005  163.6854 C.ar    1  UNL1        0.1031
     10 N         140.0857  140.3982  162.7105 N.ar    1  UNL1       -0.2258
     11 C         139.7190  140.2110  161.2682 C.ar    1  UNL1        0.1691
     12 H         137.0498  140.5459  159.0515 H       1  UNL1        0.1487
     13 C         139.4292  141.0877  165.1279 C.ar    1  UNL1        0.0328
     14 C         139.2410  139.9625  166.1017 C.ar    1  UNL1        0.0044
     15 C         139.6077  140.1497  167.5441 C.ar    1  UNL1        0.0223
     16 C         140.1627  141.4621  168.0127 C.ar    1  UNL1        0.1161
     17 N         140.3510  142.5873  167.0387 N.ar    1  UNL1       -0.2465
     18 C         139.9842  142.4001  165.5964 C.ar    1  UNL1        0.0609
     19 C         140.1725  143.5254  164.6225 C.3     1  UNL1        0.0521
     20 C         140.5295  141.6493  169.4550 C.ar    1  UNL1        0.1757
     21 N         141.8899  141.4441  170.0527 N.ar    1  UNL1       -0.2024
     22 C         141.8014  141.7425  171.5200 C.ar    1  UNL1        0.2207
     23 N         140.3863  142.1322  171.8292 N.ar    1  UNL1       -0.1486
     24 N         139.6002  142.0746  170.5530 N.ar    1  UNL1       -0.2569
     25 H         138.6425  142.2799  170.4534 H       1  UNL1        0.1906
     26 C         143.2173  140.4216  160.6340 C.3     1  UNL1        0.0237
     27 C         142.1323  139.3935  160.7605 C.3     1  UNL1        0.0998
@<TRIPOS>BOND
     1    26    27    1
     2    27     1    1
     3     1     2   am
     4     2     3    2
     5     2     4    1
     6     4     5    1
     7     5     6    1
     8     6     7   ar
     9     7     8   ar
    10     8     9   ar
    11     9    13    1
    12    13    14   ar
    13    14    15   ar
    14    15    16   ar
    15    16    20    1
    16    20    21   ar
    17    21    22   ar
    18    22    23   ar
    19    23    24   ar
    20    16    17   ar
    21    17    18   ar
    22    18    19    1
    23     9    10   ar
    24    10    11   ar
    25    11     1    1
    26    11     6   ar
    27    18    13   ar
    28    24    20   ar
    29     5    12    1
    30    24    25    1
@<TRIPOS>MOLECULE
*****
 27 30 0 0 0
SMALL
GASTEIGER

@<TRIPOS>ATOM
      1 N         139.7533  142.7073  163.3745 N.am    1  UNL1       -0.2403
      2 C         140.6157  143.2557  162.2766 C.2     1  UNL1        0.2505
      3 O         139.9878  143.9611  161.1111 O.2     1  UNL1       -0.2726
      4 C         142.1059  143.0986  162.3440 C.3     1  UNL1        0.1754
      5 N         142.7337  142.3932  163.5094 N.pl3   1  UNL1       -0.3084
      6 C         141.8713  141.8448  164.6074 C.ar    1  UNL1        0.1611
      7 N         142.4992  141.1394  165.7728 N.ar    1  UNL1       -0.2249
      8 C         141.6368  140.5910  166.8707 C.ar    1  UNL1        0.1195
      9 C         140.1466  140.7480  166.8033 C.ar    1  UNL1        0.1031
     10 N         139.5187  141.4535  165.6379 N.ar    1  UNL1       -0.2258
     11 C         140.3811  142.0018  164.5400 C.ar    1  UNL1        0.1691
     12 H         143.7118  142.2901  163.5536 H       1  UNL1        0.1487
     13 C         139.2842  140.1996  167.9013 C.ar    1  UNL1        0.0328
     14 C         139.4483  140.7012  169.3054 C.ar    1  UNL1        0.0044
     15 C         138.5859  140.1528  170.4034 C.ar    1  UNL1        0.0223
     16 C         137.5594  139.1028  170.0973 C.ar    1  UNL1        0.1161
     17 N         137.3952  138.6012  168.6931 N.ar    1  UNL1       -0.2465
     18 C         138.2576  139.1496  167.5952 C.ar    1  UNL1        0.0609
     19 C         138.0934  138.6481  166.1910 C.3     1  UNL1        0.0521
     20 C         136.6970  138.5544  171.1952 C.ar    1  UNL1        0.1757
     21 N         136.9956  137.3444  172.0300 N.ar    1  UNL1       -0.2024
     22 C         135.8678  137.1618  173.0018 C.ar    1  UNL1        0.2207
     23 N         134.8720  138.2590  172.7677 N.ar    1  UNL1       -0.1486
     24 N         135.3846  139.1196  171.6512 N.ar    1  UNL1       -0.2569
     25 H         134.9379  139.9157  171.2824 H       1  UNL1        0.1906
     26 C         137.6469  144.2277  163.4161 C.3     1  UNL1        0.0237
     27 C         138.2631  142.8644  163.3071 C.3     1  UNL1        0.0998
@<TRIPOS>BOND
     1    26    27    1
     2    27     1    1
     3     1     2   am
     4     2     3    2
     5     2     4    1
     6     4     5    1
     7     5     6    1
     8     6     7   ar
     9     7     8   ar
    10     8     9   ar
    11     9    13    1
    12    13    14   ar
    13    14    15   ar
    14    15    16   ar
    15    16    20    1
    16    20    21   ar
    17    21    22   ar
    18    22    23   ar
    19    23    24   ar
    20    16    17   ar
    21    17    18   ar
    22    18    19    1
    23     9    10   ar
    24    10    11   ar
    25    11     1    1
    26    11     6   ar
    27    18    13   ar
    28    24    20   ar
    29     5    12    1
    30    24    25    1
