@<TRIPOS>MOLECULE
*****
 37 40 0 0 0
SMALL
GASTEIGER

@<TRIPOS>ATOM
      1 C         142.6847  138.9733  158.6706 C.3     1  UNL1        0.0758
      2 C         143.2070  138.2880  159.8986 C.3     1  UNL1        0.0370
      3 C         142.2712  137.9384  161.0177 C.3     1  UNL1        0.0741
      4 N         140.8133  138.2740  160.9087 N.3     1  UNL1       -0.2688
      5 C         140.2912  138.9593  159.6808 C.3     1  UNL1        0.0741
      6 C         141.2268  139.3089  158.5618 C.3     1  UNL1        0.0370
      7 C         145.4919  140.0220  155.3136 C.3     1  UNL1        0.1165
      8 N         145.3923  140.9151  156.5147 N.am    1  UNL1       -0.2601
      9 C         144.4565  140.5655  157.6337 C.2     1  UNL1        0.3040
     10 O         144.3570  141.4586  158.8347 O.2     1  UNL1       -0.2526
     11 N         143.6204  139.3229  157.5517 N.am    1  UNL1       -0.2903
     12 H         143.6858  138.7368  156.7634 H       1  UNL1        0.1509
     13 C         146.2284  142.1577  156.5967 C.3     1  UNL1        0.1217
     14 C         146.8264  142.7430  155.3518 C.3     1  UNL1        0.1066
     15 O         145.4642  143.3696  155.3061 O.3     1  UNL1       -0.3851
     16 C         147.9808  141.9132  155.8299 C.3     1  UNL1        0.0286
     17 C         149.2601  141.8864  155.0471 C.3     1  UNL1        0.0025
     18 C         149.3849  142.6893  153.7863 C.3     1  UNL1        0.0002
     19 C         148.2304  143.5191  153.3082 C.3     1  UNL1        0.0025
     20 C         146.9511  143.5460  154.0910 C.3     1  UNL1        0.0286
     21 H         144.9469  143.0749  156.0719 H       1  UNL1        0.2103
     22 C         139.8776  137.9244  162.0277 C.3     1  UNL1        0.1007
     23 C         139.6752  138.8832  163.1634 C.ar    1  UNL1        0.0129
     24 C         138.4080  139.6210  163.4792 C.ar    1  UNL1        0.0176
     25 C         138.6541  140.4664  164.6937 C.ar    1  UNL1        0.0799
     26 N         140.0736  140.2510  165.1284 N.ar    1  UNL1       -0.3038
     27 C         140.7046  139.2726  164.1826 C.ar    1  UNL1        0.0772
     28 C         140.7441  140.9001  166.3027 C.ar    1  UNL1        0.0640
     29 C         141.9751  140.2839  166.8984 C.ar    1  UNL1        0.0175
     30 C         142.6458  140.9330  168.0727 C.ar    1  UNL1        0.0053
     31 C         142.0853  142.1983  168.6513 C.ar    1  UNL1        0.0715
     32 C         140.8543  142.8146  168.0557 C.ar    1  UNL1        0.0053
     33 C         140.1837  142.1655  166.8813 C.ar    1  UNL1        0.0175
     34 C         142.7559  142.8474  169.8256 C.3     1  UNL1        0.4186
     35 F         143.4265  143.4965  170.9999 F       1  UNL1       -0.1659
     36 F         143.9300  141.9279  169.6634 F       1  UNL1       -0.1659
     37 F         141.5819  143.7668  169.9878 F       1  UNL1       -0.1659
@<TRIPOS>BOND
     1     7     8    1
     2     8    13    1
     3    13    14    1
     4    14    15    1
     5    14    16    1
     6    16    17    1
     7    17    18    1
     8    18    19    1
     9    19    20    1
    10     8     9   am
    11     9    10    2
    12     9    11   am
    13    11     1    1
    14     1     2    1
    15     2     3    1
    16     3     4    1
    17     4    22    1
    18    22    23    1
    19    23    24   ar
    20    24    25   ar
    21    25    26   ar
    22    26    28    1
    23    28    29   ar
    24    29    30   ar
    25    30    31   ar
    26    31    34    1
    27    34    35    1
    28    34    36    1
    29    34    37    1
    30    31    32   ar
    31    32    33   ar
    32    26    27   ar
    33     4     5    1
    34     5     6    1
    35    20    14    1
    36     6     1    1
    37    27    23   ar
    38    33    28   ar
    39    15    21    1
    40    11    12    1
@<TRIPOS>MOLECULE
*****
 37 40 0 0 0
SMALL
GASTEIGER

@<TRIPOS>ATOM
      1 C         143.2893  140.0044  158.2268 C.3     1  UNL1        0.0758
      2 C         143.7154  139.9128  159.6622 C.3     1  UNL1        0.0370
      3 C         143.3781  141.0197  160.6168 C.3     1  UNL1        0.0741
      4 N         142.6147  142.2180  160.1360 N.3     1  UNL1       -0.2688
      5 C         142.1886  142.3095  158.7006 C.3     1  UNL1        0.0741
      6 C         142.5259  141.2028  157.7461 C.3     1  UNL1        0.0370
      7 C         144.3015  136.6839  155.3633 C.3     1  UNL1        0.1165
      8 N         143.1793  136.5127  156.3438 N.am    1  UNL1       -0.2601
      9 C         142.8419  137.6195  157.2984 C.2     1  UNL1        0.3040
     10 O         141.7197  137.4482  158.2789 O.2     1  UNL1       -0.2526
     11 N         143.6266  138.8976  157.2723 N.am    1  UNL1       -0.2903
     12 H         144.3631  139.0100  156.6288 H       1  UNL1        0.1509
     13 C         142.3945  135.2346  156.3699 C.3     1  UNL1        0.1217
     14 C         143.0569  133.9401  156.0019 C.3     1  UNL1        0.1066
     15 O         142.2645  134.1914  154.7534 O.3     1  UNL1       -0.3851
     16 C         143.6193  134.1383  157.3783 C.3     1  UNL1        0.0286
     17 C         144.5688  133.1293  157.9529 C.3     1  UNL1        0.0025
     18 C         144.9560  131.9221  157.1512 C.3     1  UNL1        0.0002
     19 C         144.3936  131.7238  155.7749 C.3     1  UNL1        0.0025
     20 C         143.4440  132.7328  155.2002 C.3     1  UNL1        0.0286
     21 H         141.7688  135.0200  154.8463 H       1  UNL1        0.2103
     22 C         142.2773  143.3249  161.0904 C.3     1  UNL1        0.1007
     23 C         141.3091  143.0808  162.2099 C.ar    1  UNL1        0.0129
     24 C         139.8508  143.4316  162.2065 C.ar    1  UNL1        0.0176
     25 C         139.2697  143.0107  163.5238 C.ar    1  UNL1        0.0799
     26 N         140.3691  142.3998  164.3414 N.ar    1  UNL1       -0.3038
     27 C         141.6295  142.4432  163.5293 C.ar    1  UNL1        0.0772
     28 C         140.2320  141.8433  165.7275 C.ar    1  UNL1        0.0640
     29 C         140.6407  142.6692  166.9111 C.ar    1  UNL1        0.0175
     30 C         140.5036  142.1128  168.2973 C.ar    1  UNL1        0.0053
     31 C         139.9578  140.7304  168.4999 C.ar    1  UNL1        0.0715
     32 C         139.5491  139.9044  167.3165 C.ar    1  UNL1        0.0053
     33 C         139.6862  140.4609  165.9302 C.ar    1  UNL1        0.0175
     34 C         139.8207  140.1739  169.8862 C.3     1  UNL1        0.4186
     35 F         139.6836  139.6174  171.2724 F       1  UNL1       -0.1659
     36 F         138.5680  140.9749  170.0838 F       1  UNL1       -0.1659
     37 F         141.0734  139.3729  169.6885 F       1  UNL1       -0.1659
@<TRIPOS>BOND
     1     7     8    1
     2     8    13    1
     3    13    14    1
     4    14    15    1
     5    14    16    1
     6    16    17    1
     7    17    18    1
     8    18    19    1
     9    19    20    1
    10     8     9   am
    11     9    10    2
    12     9    11   am
    13    11     1    1
    14     1     2    1
    15     2     3    1
    16     3     4    1
    17     4    22    1
    18    22    23    1
    19    23    24   ar
    20    24    25   ar
    21    25    26   ar
    22    26    28    1
    23    28    29   ar
    24    29    30   ar
    25    30    31   ar
    26    31    34    1
    27    34    35    1
    28    34    36    1
    29    34    37    1
    30    31    32   ar
    31    32    33   ar
    32    26    27   ar
    33     4     5    1
    34     5     6    1
    35    20    14    1
    36     6     1    1
    37    27    23   ar
    38    33    28   ar
    39    15    21    1
    40    11    12    1
@<TRIPOS>MOLECULE
*****
 37 40 0 0 0
SMALL
GASTEIGER

@<TRIPOS>ATOM
      1 C         141.0149  144.3021  158.7705 C.3     1  UNL1        0.0758
      2 C         140.7277  144.9551  160.0901 C.3     1  UNL1        0.0370
      3 C         141.6655  144.7582  161.2442 C.3     1  UNL1        0.0741
      4 N         142.8903  143.9082  161.0787 N.3     1  UNL1       -0.2688
      5 C         143.1774  143.2553  159.7591 C.3     1  UNL1        0.0741
      6 C         142.2398  143.4522  158.6051 C.3     1  UNL1        0.0370
      7 C         138.2016  144.8929  155.3084 C.3     1  UNL1        0.1165
      8 N         139.3454  145.8410  155.5156 N.am    1  UNL1       -0.2601
      9 C         140.2832  145.6441  156.6697 C.2     1  UNL1        0.3040
     10 O         141.4269  146.5922  156.8768 O.2     1  UNL1       -0.2526
     11 N         140.0772  144.4991  157.6165 N.am    1  UNL1       -0.2903
     12 H         139.3265  143.8768  157.4805 H       1  UNL1        0.1509
     13 C         139.5514  146.9861  154.5688 C.3     1  UNL1        0.1217
     14 C         139.1769  148.3783  154.9828 C.3     1  UNL1        0.1066
     15 O         138.4772  147.5918  156.0513 O.3     1  UNL1       -0.3851
     16 C         140.0067  148.6814  153.7705 C.3     1  UNL1        0.0286
     17 C         140.2189  150.1035  153.3434 C.3     1  UNL1        0.0025
     18 C         139.6014  151.2225  154.1285 C.3     1  UNL1        0.0002
     19 C         138.7717  150.9195  155.3407 C.3     1  UNL1        0.0025
     20 C         138.5594  149.4974  155.7679 C.3     1  UNL1        0.0286
     21 H         138.6334  146.6449  155.9105 H       1  UNL1        0.2103
     22 C         143.8281  143.7112  162.2327 C.3     1  UNL1        0.1007
     23 C         143.3446  143.0448  163.4866 C.ar    1  UNL1        0.0129
     24 C         144.0330  143.0682  164.8191 C.ar    1  UNL1        0.0176
     25 C         143.2017  142.2758  165.7842 C.ar    1  UNL1        0.0799
     26 N         141.9996  141.7627  165.0480 N.ar    1  UNL1       -0.3038
     27 C         142.0880  142.2380  163.6280 C.ar    1  UNL1        0.0772
     28 C         140.9021  140.9220  165.6297 C.ar    1  UNL1        0.0640
     29 C         140.6764  140.9046  167.1125 C.ar    1  UNL1        0.0175
     30 C         139.5787  140.0638  167.6943 C.ar    1  UNL1        0.0053
     31 C         138.7068  139.2406  166.7932 C.ar    1  UNL1        0.0715
     32 C         138.9324  139.2580  165.3105 C.ar    1  UNL1        0.0053
     33 C         140.0300  140.0987  164.7287 C.ar    1  UNL1        0.0175
     34 C         137.6092  138.3999  167.3750 C.3     1  UNL1        0.4186
     35 F         136.5115  137.5592  167.9568 F       1  UNL1       -0.1659
     36 F         137.6007  139.2610  168.6033 F       1  UNL1       -0.1659
     37 F         137.6177  137.5389  166.1468 F       1  UNL1       -0.1659
@<TRIPOS>BOND
     1     7     8    1
     2     8    13    1
     3    13    14    1
     4    14    15    1
     5    14    16    1
     6    16    17    1
     7    17    18    1
     8    18    19    1
     9    19    20    1
    10     8     9   am
    11     9    10    2
    12     9    11   am
    13    11     1    1
    14     1     2    1
    15     2     3    1
    16     3     4    1
    17     4    22    1
    18    22    23    1
    19    23    24   ar
    20    24    25   ar
    21    25    26   ar
    22    26    28    1
    23    28    29   ar
    24    29    30   ar
    25    30    31   ar
    26    31    34    1
    27    34    35    1
    28    34    36    1
    29    34    37    1
    30    31    32   ar
    31    32    33   ar
    32    26    27   ar
    33     4     5    1
    34     5     6    1
    35    20    14    1
    36     6     1    1
    37    27    23   ar
    38    33    28   ar
    39    15    21    1
    40    11    12    1
@<TRIPOS>MOLECULE
*****
 37 40 0 0 0
SMALL
GASTEIGER

@<TRIPOS>ATOM
      1 C         143.3500  140.1957  158.0251 C.3     1  UNL1        0.0758
      2 C         142.3340  141.2196  157.6132 C.3     1  UNL1        0.0370
      3 C         142.0285  142.3783  158.5156 C.3     1  UNL1        0.0741
      4 N         142.7389  142.5130  159.8298 N.3     1  UNL1       -0.2688
      5 C         143.7548  141.4890  160.2416 C.3     1  UNL1        0.0741
      6 C         144.0603  140.3305  159.3393 C.3     1  UNL1        0.0370
      7 C         144.2665  136.7200  155.3177 C.3     1  UNL1        0.1165
      8 N         143.1677  136.6105  156.3331 N.am    1  UNL1       -0.2601
      9 C         142.8622  137.7691  157.2356 C.2     1  UNL1        0.3040
     10 O         141.7635  137.6594  158.2508 O.2     1  UNL1       -0.2526
     11 N         143.6554  139.0372  157.1227 N.am    1  UNL1       -0.2903
     12 H         144.3765  139.1090  156.4563 H       1  UNL1        0.1509
     13 C         142.3745  135.3424  156.4460 C.3     1  UNL1        0.1217
     14 C         142.9697  134.0425  155.9922 C.3     1  UNL1        0.1066
     15 O         142.1219  134.3714  154.7992 O.3     1  UNL1       -0.3851
     16 C         143.6107  134.1650  157.3427 C.3     1  UNL1        0.0286
     17 C         144.5525  133.1018  157.8251 C.3     1  UNL1        0.0025
     18 C         144.8532  131.9161  156.9569 C.3     1  UNL1        0.0002
     19 C         144.2121  131.7936  155.6064 C.3     1  UNL1        0.0025
     20 C         143.2704  132.8568  155.1240 C.3     1  UNL1        0.0286
     21 H         141.6619  135.2117  154.9513 H       1  UNL1        0.2103
     22 C         142.4334  143.6715  160.7322 C.3     1  UNL1        0.1007
     23 C         142.6809  143.5588  162.2074 C.ar    1  UNL1        0.0129
     24 C         143.7442  144.2807  162.9807 C.ar    1  UNL1        0.0176
     25 C         143.6290  143.8724  164.4195 C.ar    1  UNL1        0.0799
     26 N         142.4943  142.8980  164.5353 N.ar    1  UNL1       -0.3038
     27 C         141.9084  142.7042  163.1681 C.ar    1  UNL1        0.0772
     28 C         142.0276  142.2341  165.7968 C.ar    1  UNL1        0.0640
     29 C         142.8384  141.1296  166.4073 C.ar    1  UNL1        0.0175
     30 C         142.3718  140.4657  167.6688 C.ar    1  UNL1        0.0053
     31 C         141.0943  140.9063  168.3198 C.ar    1  UNL1        0.0715
     32 C         140.2834  142.0107  167.7095 C.ar    1  UNL1        0.0053
     33 C         140.7501  142.6747  166.4479 C.ar    1  UNL1        0.0175
     34 C         140.6276  140.2423  169.5814 C.3     1  UNL1        0.4186
     35 F         140.1610  139.5783  170.8429 F       1  UNL1       -0.1659
     36 F         141.9355  139.5147  169.6823 F       1  UNL1       -0.1659
     37 F         139.3198  140.9698  169.4805 F       1  UNL1       -0.1659
@<TRIPOS>BOND
     1     7     8    1
     2     8    13    1
     3    13    14    1
     4    14    15    1
     5    14    16    1
     6    16    17    1
     7    17    18    1
     8    18    19    1
     9    19    20    1
    10     8     9   am
    11     9    10    2
    12     9    11   am
    13    11     1    1
    14     1     2    1
    15     2     3    1
    16     3     4    1
    17     4    22    1
    18    22    23    1
    19    23    24   ar
    20    24    25   ar
    21    25    26   ar
    22    26    28    1
    23    28    29   ar
    24    29    30   ar
    25    30    31   ar
    26    31    34    1
    27    34    35    1
    28    34    36    1
    29    34    37    1
    30    31    32   ar
    31    32    33   ar
    32    26    27   ar
    33     4     5    1
    34     5     6    1
    35    20    14    1
    36     6     1    1
    37    27    23   ar
    38    33    28   ar
    39    15    21    1
    40    11    12    1
@<TRIPOS>MOLECULE
*****
 37 40 0 0 0
SMALL
GASTEIGER

@<TRIPOS>ATOM
      1 C         142.7776  139.3985  161.8301 C.3     1  UNL1        0.0758
      2 C         141.7976  138.3978  161.2931 C.3     1  UNL1        0.0370
      3 C         141.7597  138.0994  159.8235 C.3     1  UNL1        0.0741
      4 N         142.7017  138.8015  158.8911 N.3     1  UNL1       -0.2688
      5 C         143.6817  139.8022  159.4282 C.3     1  UNL1        0.0741
      6 C         143.7197  140.1006  160.8976 C.3     1  UNL1        0.0370
      7 C         142.8914  140.2936  166.2387 C.3     1  UNL1        0.1165
      8 N         141.7307  140.7568  165.4091 N.am    1  UNL1       -0.2601
      9 C         141.6927  140.4584  163.9395 C.2     1  UNL1        0.3040
     10 O         140.5320  140.9215  163.1099 O.2     1  UNL1       -0.2526
     11 N         142.8155  139.6969  163.2996 N.am    1  UNL1       -0.2903
     12 H         143.5773  139.3929  163.8441 H       1  UNL1        0.1509
     13 C         140.6079  141.5182  166.0489 C.3     1  UNL1        0.1217
     14 C         140.1102  141.1208  167.4070 C.3     1  UNL1        0.1066
     15 O         139.7898  139.8741  166.6370 O.3     1  UNL1       -0.3851
     16 C         140.6036  142.5055  167.7054 C.3     1  UNL1        0.0286
     17 C         140.4879  143.0598  169.0944 C.3     1  UNL1        0.0025
     18 C         139.8789  142.2293  170.1850 C.3     1  UNL1        0.0002
     19 C         139.3856  140.8445  169.8866 C.3     1  UNL1        0.0025
     20 C         139.5013  140.2903  168.4976 C.3     1  UNL1        0.0286
     21 H         140.0632  139.9855  165.7130 H       1  UNL1        0.2103
     22 C         142.6638  138.5032  157.4216 C.3     1  UNL1        0.1007
     23 C         142.4906  137.0906  156.9473 C.ar    1  UNL1        0.0129
     24 C         141.5408  136.6285  155.8823 C.ar    1  UNL1        0.0176
     25 C         141.6999  135.1445  155.7315 C.ar    1  UNL1        0.0799
     26 N         142.7481  134.6896  156.7035 N.ar    1  UNL1       -0.3038
     27 C         143.2367  135.8925  157.4549 C.ar    1  UNL1        0.0772
     28 C         143.2239  133.2796  156.8911 C.ar    1  UNL1        0.0640
     29 C         144.4576  133.0056  157.6992 C.ar    1  UNL1        0.0175
     30 C         144.9335  131.5955  157.8868 C.ar    1  UNL1        0.0053
     31 C         144.1757  130.4594  157.2663 C.ar    1  UNL1        0.0715
     32 C         142.9421  130.7333  156.4583 C.ar    1  UNL1        0.0053
     33 C         142.4661  132.1434  156.2706 C.ar    1  UNL1        0.0175
     34 C         144.6516  129.0493  157.4539 C.3     1  UNL1        0.4186
     35 F         145.1276  127.6392  157.6416 F       1  UNL1       -0.1659
     36 F         144.5568  129.2153  158.9418 F       1  UNL1       -0.1659
     37 F         144.7464  128.8834  155.9662 F       1  UNL1       -0.1659
@<TRIPOS>BOND
     1     7     8    1
     2     8    13    1
     3    13    14    1
     4    14    15    1
     5    14    16    1
     6    16    17    1
     7    17    18    1
     8    18    19    1
     9    19    20    1
    10     8     9   am
    11     9    10    2
    12     9    11   am
    13    11     1    1
    14     1     2    1
    15     2     3    1
    16     3     4    1
    17     4    22    1
    18    22    23    1
    19    23    24   ar
    20    24    25   ar
    21    25    26   ar
    22    26    28    1
    23    28    29   ar
    24    29    30   ar
    25    30    31   ar
    26    31    34    1
    27    34    35    1
    28    34    36    1
    29    34    37    1
    30    31    32   ar
    31    32    33   ar
    32    26    27   ar
    33     4     5    1
    34     5     6    1
    35    20    14    1
    36     6     1    1
    37    27    23   ar
    38    33    28   ar
    39    15    21    1
    40    11    12    1
@<TRIPOS>MOLECULE
*****
 37 40 0 0 0
SMALL
GASTEIGER

@<TRIPOS>ATOM
      1 C         141.8858  139.7374  157.6308 C.3     1  UNL1        0.0758
      2 C         141.7907  138.7114  158.7211 C.3     1  UNL1        0.0370
      3 C         140.5660  138.6461  159.5847 C.3     1  UNL1        0.0741
      4 N         139.4364  139.6066  159.3581 N.3     1  UNL1       -0.2688
      5 C         139.5315  140.6325  158.2679 C.3     1  UNL1        0.0741
      6 C         140.7562  140.6979  157.4043 C.3     1  UNL1        0.0370
      7 C         145.5600  139.9333  155.0400 C.3     1  UNL1        0.1165
      8 N         145.3616  140.9366  156.1374 N.am    1  UNL1       -0.2601
      9 C         144.1369  140.8713  157.0010 C.2     1  UNL1        0.3040
     10 O         143.9387  141.8746  158.0983 O.2     1  UNL1       -0.2526
     11 N         143.1105  139.8027  156.7673 N.am    1  UNL1       -0.2903
     12 H         143.2406  139.1443  156.0471 H       1  UNL1        0.1509
     13 C         146.3881  142.0051  156.3711 C.3     1  UNL1        0.1217
     14 C         147.0164  142.7095  155.2053 C.3     1  UNL1        0.1066
     15 O         145.6652  143.3610  155.2060 O.3     1  UNL1       -0.3851
     16 C         148.1493  141.8134  155.6096 C.3     1  UNL1        0.0286
     17 C         149.4412  141.8480  154.8482 C.3     1  UNL1        0.0025
     18 C         149.6002  142.7787  153.6827 C.3     1  UNL1        0.0002
     19 C         148.4673  143.6748  153.2784 C.3     1  UNL1        0.0025
     20 C         147.1754  143.6402  154.0398 C.3     1  UNL1        0.0286
     21 H         145.1303  142.9953  155.9278 H       1  UNL1        0.2103
     22 C         138.2117  139.5413  160.2217 C.3     1  UNL1        0.1007
     23 C         138.1966  140.2286  161.5550 C.ar    1  UNL1        0.0129
     24 C         137.7242  141.6272  161.8206 C.ar    1  UNL1        0.0176
     25 C         137.8868  141.9009  163.2865 C.ar    1  UNL1        0.0799
     26 N         138.4598  140.6712  163.9267 N.ar    1  UNL1       -0.3038
     27 C         138.6513  139.6377  162.8565 C.ar    1  UNL1        0.0772
     28 C         138.7844  140.5045  165.3816 C.ar    1  UNL1        0.0640
     29 C         139.7760  141.4185  166.0384 C.ar    1  UNL1        0.0175
     30 C         140.1006  141.2518  167.4934 C.ar    1  UNL1        0.0053
     31 C         139.4335  140.1711  168.2915 C.ar    1  UNL1        0.0715
     32 C         138.4419  139.2571  167.6349 C.ar    1  UNL1        0.0053
     33 C         138.1174  139.4238  166.1799 C.ar    1  UNL1        0.0175
     34 C         139.7581  140.0045  169.7465 C.3     1  UNL1        0.4186
     35 F         140.0827  139.8378  171.2015 F       1  UNL1       -0.1659
     36 F         138.3934  140.5108  170.1090 F       1  UNL1       -0.1659
     37 F         141.1227  139.4982  169.3840 F       1  UNL1       -0.1659
@<TRIPOS>BOND
     1     7     8    1
     2     8    13    1
     3    13    14    1
     4    14    15    1
     5    14    16    1
     6    16    17    1
     7    17    18    1
     8    18    19    1
     9    19    20    1
    10     8     9   am
    11     9    10    2
    12     9    11   am
    13    11     1    1
    14     1     2    1
    15     2     3    1
    16     3     4    1
    17     4    22    1
    18    22    23    1
    19    23    24   ar
    20    24    25   ar
    21    25    26   ar
    22    26    28    1
    23    28    29   ar
    24    29    30   ar
    25    30    31   ar
    26    31    34    1
    27    34    35    1
    28    34    36    1
    29    34    37    1
    30    31    32   ar
    31    32    33   ar
    32    26    27   ar
    33     4     5    1
    34     5     6    1
    35    20    14    1
    36     6     1    1
    37    27    23   ar
    38    33    28   ar
    39    15    21    1
    40    11    12    1
@<TRIPOS>MOLECULE
*****
 37 40 0 0 0
SMALL
GASTEIGER

@<TRIPOS>ATOM
      1 C         140.5507  139.1511  159.9216 C.3     1  UNL1        0.0758
      2 C         142.0240  139.0589  159.6554 C.3     1  UNL1        0.0370
      3 C         142.5187  138.4393  158.3820 C.3     1  UNL1        0.0741
      4 N         141.5401  137.9120  157.3750 N.3     1  UNL1       -0.2688
      5 C         140.0668  138.0042  157.6413 C.3     1  UNL1        0.0741
      6 C         139.5721  138.6237  158.9145 C.3     1  UNL1        0.0370
      7 C         139.0667  141.0100  163.7417 C.3     1  UNL1        0.1165
      8 N         139.3367  139.5357  163.6804 N.am    1  UNL1       -0.2601
      9 C         139.8314  138.9160  162.4070 C.2     1  UNL1        0.3040
     10 O         140.1013  137.4418  162.3459 O.2     1  UNL1       -0.2526
     11 N         140.0560  139.7707  161.1950 N.am    1  UNL1       -0.2903
     12 H         139.8788  140.7383  161.2352 H       1  UNL1        0.1509
     13 C         139.1120  138.6811  164.8925 C.3     1  UNL1        0.1217
     14 C         139.3994  139.2277  166.2594 C.3     1  UNL1        0.1066
     15 O         137.8997  139.2243  166.2902 O.3     1  UNL1       -0.3851
     16 C         140.7992  139.0413  165.7540 C.3     1  UNL1        0.0286
     17 C         141.9655  139.4004  166.6262 C.3     1  UNL1        0.0025
     18 C         141.7320  139.9458  168.0038 C.3     1  UNL1        0.0002
     19 C         140.3321  140.1322  168.5093 C.3     1  UNL1        0.0025
     20 C         139.1658  139.7732  167.6371 C.3     1  UNL1        0.0286
     21 H         137.5598  138.8855  165.4472 H       1  UNL1        0.2103
     22 C         142.0347  137.2924  156.1016 C.3     1  UNL1        0.1007
     23 C         142.0158  135.8016  155.9361 C.ar    1  UNL1        0.0129
     24 C         141.1317  135.0294  155.0024 C.ar    1  UNL1        0.0176
     25 C         141.4471  133.5718  155.1645 C.ar    1  UNL1        0.0799
     26 N         142.5262  133.4434  156.1985 N.ar    1  UNL1       -0.3038
     27 C         142.8777  134.8215  156.6754 C.ar    1  UNL1        0.0772
     28 C         143.1452  132.1619  156.6724 C.ar    1  UNL1        0.0640
     29 C         142.5740  130.8461  156.2338 C.ar    1  UNL1        0.0175
     30 C         143.1929  129.5644  156.7077 C.ar    1  UNL1        0.0053
     31 C         144.3830  129.5988  157.6200 C.ar    1  UNL1        0.0715
     32 C         144.9542  130.9145  158.0586 C.ar    1  UNL1        0.0053
     33 C         144.3353  132.1961  157.5848 C.ar    1  UNL1        0.0175
     34 C         145.0019  128.3171  158.0939 C.3     1  UNL1        0.4186
     35 F         145.6208  127.0355  158.5677 F       1  UNL1       -0.1659
     36 F         145.1347  127.8558  156.6727 F       1  UNL1       -0.1659
     37 F         144.8691  128.7785  159.5149 F       1  UNL1       -0.1659
@<TRIPOS>BOND
     1     7     8    1
     2     8    13    1
     3    13    14    1
     4    14    15    1
     5    14    16    1
     6    16    17    1
     7    17    18    1
     8    18    19    1
     9    19    20    1
    10     8     9   am
    11     9    10    2
    12     9    11   am
    13    11     1    1
    14     1     2    1
    15     2     3    1
    16     3     4    1
    17     4    22    1
    18    22    23    1
    19    23    24   ar
    20    24    25   ar
    21    25    26   ar
    22    26    28    1
    23    28    29   ar
    24    29    30   ar
    25    30    31   ar
    26    31    34    1
    27    34    35    1
    28    34    36    1
    29    34    37    1
    30    31    32   ar
    31    32    33   ar
    32    26    27   ar
    33     4     5    1
    34     5     6    1
    35    20    14    1
    36     6     1    1
    37    27    23   ar
    38    33    28   ar
    39    15    21    1
    40    11    12    1
@<TRIPOS>MOLECULE
*****
 37 40 0 0 0
SMALL
GASTEIGER

@<TRIPOS>ATOM
      1 C         140.6291  138.1656  157.5856 C.3     1  UNL1        0.0758
      2 C         141.1568  139.4775  157.0850 C.3     1  UNL1        0.0370
      3 C         140.9980  140.7161  157.9162 C.3     1  UNL1        0.0741
      4 N         140.3114  140.6427  159.2478 N.3     1  UNL1       -0.2688
      5 C         139.7836  139.3307  159.7482 C.3     1  UNL1        0.0741
      6 C         139.9425  138.0923  158.9172 C.3     1  UNL1        0.0370
      7 C         141.1056  134.4500  155.0920 C.3     1  UNL1        0.1165
      8 N         142.3007  135.0641  155.7589 N.am    1  UNL1       -0.2601
      9 C         142.1419  136.3027  156.5901 C.2     1  UNL1        0.3040
     10 O         143.3370  136.9166  157.2570 O.2     1  UNL1       -0.2526
     11 N         140.7880  136.9271  156.7544 N.am    1  UNL1       -0.2903
     12 H         140.0036  136.5240  156.3167 H       1  UNL1        0.1509
     13 C         143.6546  134.4397  155.5947 C.3     1  UNL1        0.1217
     14 C         144.0139  133.2111  156.3767 C.3     1  UNL1        0.1066
     15 O         144.2562  134.2630  157.4182 O.3     1  UNL1       -0.3851
     16 C         143.6469  132.5859  155.0636 C.3     1  UNL1        0.0286
     17 C         143.7233  131.0975  154.8943 C.3     1  UNL1        0.0025
     18 C         144.1667  130.2343  156.0381 C.3     1  UNL1        0.0002
     19 C         144.5338  130.8595  157.3512 C.3     1  UNL1        0.0025
     20 C         144.4574  132.3480  157.5205 C.3     1  UNL1        0.0286
     21 H         144.0599  135.1373  157.0466 H       1  UNL1        0.2103
     22 C         140.1525  141.8812  160.0789 C.3     1  UNL1        0.1007
     23 C         139.4792  141.8050  161.4172 C.ar    1  UNL1        0.0129
     24 C         138.0393  142.1170  161.6988 C.ar    1  UNL1        0.0176
     25 C         137.7978  141.9083  163.1645 C.ar    1  UNL1        0.0799
     26 N         139.0886  141.4673  163.7887 N.ar    1  UNL1       -0.3038
     27 C         140.1277  141.4035  162.7088 C.ar    1  UNL1        0.0772
     28 C         139.3025  141.1465  165.2383 C.ar    1  UNL1        0.0640
     29 C         140.0555  142.1028  166.1149 C.ar    1  UNL1        0.0175
     30 C         140.2695  141.7820  167.5645 C.ar    1  UNL1        0.0053
     31 C         139.7305  140.5049  168.1374 C.ar    1  UNL1        0.0715
     32 C         138.9775  139.5485  167.2610 C.ar    1  UNL1        0.0053
     33 C         138.7635  139.8693  165.8113 C.ar    1  UNL1        0.0175
     34 C         139.9445  140.1841  169.5871 C.3     1  UNL1        0.4186
     35 F         140.1585  139.8633  171.0367 F       1  UNL1       -0.1659
     36 F         138.7226  140.9780  169.9431 F       1  UNL1       -0.1659
     37 F         141.1663  139.3902  169.2310 F       1  UNL1       -0.1659
@<TRIPOS>BOND
     1     7     8    1
     2     8    13    1
     3    13    14    1
     4    14    15    1
     5    14    16    1
     6    16    17    1
     7    17    18    1
     8    18    19    1
     9    19    20    1
    10     8     9   am
    11     9    10    2
    12     9    11   am
    13    11     1    1
    14     1     2    1
    15     2     3    1
    16     3     4    1
    17     4    22    1
    18    22    23    1
    19    23    24   ar
    20    24    25   ar
    21    25    26   ar
    22    26    28    1
    23    28    29   ar
    24    29    30   ar
    25    30    31   ar
    26    31    34    1
    27    34    35    1
    28    34    36    1
    29    34    37    1
    30    31    32   ar
    31    32    33   ar
    32    26    27   ar
    33     4     5    1
    34     5     6    1
    35    20    14    1
    36     6     1    1
    37    27    23   ar
    38    33    28   ar
    39    15    21    1
    40    11    12    1
@<TRIPOS>MOLECULE
*****
 37 40 0 0 0
SMALL
GASTEIGER

@<TRIPOS>ATOM
      1 C         143.8946  141.8524  160.0828 C.3     1  UNL1        0.0758
      2 C         144.5398  142.4302  158.8580 C.3     1  UNL1        0.0370
      3 C         144.4785  141.6869  157.5565 C.3     1  UNL1        0.0741
      4 N         143.7720  140.3659  157.4798 N.3     1  UNL1       -0.2688
      5 C         143.1269  139.7882  158.7046 C.3     1  UNL1        0.0741
      6 C         143.1882  140.5315  160.0060 C.3     1  UNL1        0.0370
      7 C         144.0788  144.0823  163.9871 C.3     1  UNL1        0.1165
      8 N         142.9871  144.3819  163.0031 N.am    1  UNL1       -0.2601
      9 C         142.9256  143.6386  161.7016 C.2     1  UNL1        0.3040
     10 O         141.8339  143.9382  160.7176 O.2     1  UNL1       -0.2526
     11 N         143.9560  142.5957  161.3842 N.am    1  UNL1       -0.2903
     12 H         144.6726  142.3991  162.0300 H       1  UNL1        0.1509
     13 C         141.9567  145.4248  163.3205 C.3     1  UNL1        0.1217
     14 C         140.4977  145.1014  163.1914 C.3     1  UNL1        0.1066
     15 O         140.6692  146.0079  162.0087 O.3     1  UNL1       -0.3851
     16 C         140.8328  144.3072  164.4189 C.3     1  UNL1        0.0286
     17 C         139.7685  143.5045  165.1066 C.3     1  UNL1        0.0025
     18 C         138.3691  143.4960  164.5667 C.3     1  UNL1        0.0002
     19 C         138.0339  144.2902  163.3392 C.3     1  UNL1        0.0025
     20 C         139.0982  145.0929  162.6515 C.3     1  UNL1        0.0286
     21 H         141.5910  146.3060  161.9608 H       1  UNL1        0.2103
     22 C         143.7107  139.6227  156.1784 C.3     1  UNL1        0.1007
     23 C         142.9316  138.3445  156.0807 C.ar    1  UNL1        0.0129
     24 C         141.4630  138.2265  155.7993 C.ar    1  UNL1        0.0176
     25 C         141.1080  136.7691  155.7919 C.ar    1  UNL1        0.0799
     26 N         142.3575  135.9864  156.0688 N.ar    1  UNL1       -0.3038
     27 C         143.4844  136.9601  156.2472 C.ar    1  UNL1        0.0772
     28 C         142.4615  134.4924  156.1524 C.ar    1  UNL1        0.0640
     29 C         141.5592  133.6300  155.3205 C.ar    1  UNL1        0.0175
     30 C         141.6631  132.1359  155.4042 C.ar    1  UNL1        0.0053
     31 C         142.6695  131.5043  156.3197 C.ar    1  UNL1        0.0715
     32 C         143.5719  132.3665  157.1516 C.ar    1  UNL1        0.0053
     33 C         143.4679  133.8606  157.0680 C.ar    1  UNL1        0.0175
     34 C         142.7735  130.0102  156.4033 C.3     1  UNL1        0.4186
     35 F         142.8775  128.5161  156.4869 F       1  UNL1       -0.1659
     36 F         141.4964  129.8779  155.6276 F       1  UNL1       -0.1659
     37 F         144.0505  130.1425  157.1790 F       1  UNL1       -0.1659
@<TRIPOS>BOND
     1     7     8    1
     2     8    13    1
     3    13    14    1
     4    14    15    1
     5    14    16    1
     6    16    17    1
     7    17    18    1
     8    18    19    1
     9    19    20    1
    10     8     9   am
    11     9    10    2
    12     9    11   am
    13    11     1    1
    14     1     2    1
    15     2     3    1
    16     3     4    1
    17     4    22    1
    18    22    23    1
    19    23    24   ar
    20    24    25   ar
    21    25    26   ar
    22    26    28    1
    23    28    29   ar
    24    29    30   ar
    25    30    31   ar
    26    31    34    1
    27    34    35    1
    28    34    36    1
    29    34    37    1
    30    31    32   ar
    31    32    33   ar
    32    26    27   ar
    33     4     5    1
    34     5     6    1
    35    20    14    1
    36     6     1    1
    37    27    23   ar
    38    33    28   ar
    39    15    21    1
    40    11    12    1
