@<TRIPOS>MOLECULE
*****
 34 38 0 0 0
SMALL
GASTEIGER

@<TRIPOS>ATOM
      1 C         141.6235  139.3958  159.0294 C.3     1  UNL1        0.0730
      2 N         141.1895  139.4643  160.4636 N.3     1  UNL1       -0.2720
      3 C         140.2507  138.3835  160.9117 C.3     1  UNL1        0.0768
      4 C         139.6422  138.1760  162.2670 C.3     1  UNL1        0.0433
      5 C         139.8222  138.9979  163.5087 C.ar    1  UNL1       -0.0247
      6 C         139.0299  138.4409  164.6542 C.ar    1  UNL1       -0.0045
      7 C         139.0705  139.1164  165.9929 C.ar    1  UNL1        0.0013
      8 C         139.9035  140.3488  166.1862 C.ar    1  UNL1        0.0206
      9 C         140.6958  140.9057  165.0407 C.ar    1  UNL1       -0.0029
     10 C         140.6552  140.2303  163.7021 C.ar    1  UNL1       -0.0246
     11 C         141.5139  140.9452  162.7013 C.3     1  UNL1        0.0433
     12 C         141.7516  140.6042  161.2600 C.3     1  UNL1        0.0768
     13 C         139.9441  141.0242  167.5249 C.ar    1  UNL1        0.1227
     14 C         140.3969  142.4294  167.7901 C.ar    1  UNL1        0.0580
     15 C         140.2717  142.6867  169.2625 C.ar    1  UNL1        0.1548
     16 C         140.6163  143.9657  169.9665 C.3     1  UNL1        0.0754
     17 O         139.7414  141.4405  169.9074 O.2     1  UNL1       -0.3578
     18 N         139.5389  140.4130  168.8335 N.ar    1  UNL1       -0.0774
     19 C         140.6614  138.9326  157.9759 C.3     1  UNL1        0.0294
     20 C         140.1203  139.9082  156.9731 C.3     1  UNL1        0.0666
     21 S         138.8528  140.6562  157.2628 S.3     1  UNL1       -0.0756
     22 C         138.0766  141.6678  160.9288 C.ar    1  UNL1        0.1668
     23 N         137.2324  140.4365  160.7829 N.ar    1  UNL1       -0.1282
     24 N         137.4205  139.9077  159.3919 N.ar    1  UNL1       -0.1221
     25 C         138.3809  140.8122  158.6780 C.ar    1  UNL1        0.1932
     26 N         138.7864  141.8999  159.6279 N.ar    1  UNL1       -0.2884
     27 C         139.7351  143.0228  159.3293 C.3     1  UNL1        0.1340
     28 C         138.5340  145.0674  165.8515 C.3     1  UNL1        0.0310
     29 C         138.4197  144.2175  164.6208 C.ar    1  UNL1       -0.0218
     30 C         139.0836  144.6492  163.3469 C.ar    1  UNL1       -0.0042
     31 C         138.9693  143.7993  162.1162 C.ar    1  UNL1        0.0027
     32 C         138.1910  142.5177  162.1594 C.ar    1  UNL1        0.0359
     33 C         137.5271  142.0861  163.4333 C.ar    1  UNL1        0.0027
     34 C         137.6414  142.9360  164.6640 C.ar    1  UNL1       -0.0042
@<TRIPOS>BOND
     1    28    29    1
     2    29    30   ar
     3    30    31   ar
     4    31    32   ar
     5    32    22    1
     6    22    23   ar
     7    23    24   ar
     8    24    25   ar
     9    25    21    1
    10    21    20    1
    11    20    19    1
    12    19     1    1
    13     1     2    1
    14     2     3    1
    15     3     4    1
    16     4     5    1
    17     5     6   ar
    18     6     7   ar
    19     7     8   ar
    20     8    13    1
    21    13    14   ar
    22    14    15   ar
    23    15    16    1
    24    15    17   ar
    25    17    18   ar
    26     8     9   ar
    27     9    10   ar
    28    10    11    1
    29    11    12    1
    30    25    26   ar
    31    26    27    1
    32    32    33   ar
    33    33    34   ar
    34    34    29   ar
    35    26    22   ar
    36    12     2    1
    37    10     5   ar
    38    18    13   ar
@<TRIPOS>MOLECULE
*****
 34 38 0 0 0
SMALL
GASTEIGER

@<TRIPOS>ATOM
      1 C         141.7832  145.3655  158.9982 C.3     1  UNL1        0.0730
      2 N         141.4264  144.9925  160.4066 N.3     1  UNL1       -0.2720
      3 C         140.1988  145.6510  160.9631 C.3     1  UNL1        0.0768
      4 C         139.5860  145.4900  162.3228 C.3     1  UNL1        0.0433
      5 C         140.0492  144.6307  163.4615 C.ar    1  UNL1       -0.0247
      6 C         139.1448  144.7630  164.6510 C.ar    1  UNL1       -0.0045
      7 C         139.4310  143.9847  165.9009 C.ar    1  UNL1        0.0013
      8 C         140.6215  143.0741  165.9615 C.ar    1  UNL1        0.0206
      9 C         141.5258  142.9419  164.7721 C.ar    1  UNL1       -0.0029
     10 C         141.2397  143.7202  163.5221 C.ar    1  UNL1       -0.0246
     11 C         142.2610  143.4441  162.4588 C.3     1  UNL1        0.0433
     12 C         142.3440  144.0103  161.0722 C.3     1  UNL1        0.0768
     13 C         140.9076  142.2959  167.2115 C.ar    1  UNL1        0.1227
     14 C         141.7415  141.0526  167.3045 C.ar    1  UNL1        0.0580
     15 C         141.7594  140.6126  168.7384 C.ar    1  UNL1        0.1548
     16 C         142.4746  139.4119  169.2833 C.3     1  UNL1        0.0754
     17 O         140.9365  141.5840  169.5316 O.2     1  UNL1       -0.3578
     18 N         140.4101  142.6244  168.5880 N.ar    1  UNL1       -0.0774
     19 C         142.3262  144.3270  158.0619 C.3     1  UNL1        0.0294
     20 C         141.4062  143.6196  157.1114 C.3     1  UNL1        0.0666
     21 S         140.7305  142.3472  157.5288 S.3     1  UNL1       -0.0756
     22 C         139.1001  141.7693  161.0035 C.ar    1  UNL1        0.1668
     23 N         138.1462  142.7548  160.3960 N.ar    1  UNL1       -0.1282
     24 N         138.6409  143.0912  159.0205 N.ar    1  UNL1       -0.1221
     25 C         139.9005  142.3136  158.7778 C.ar    1  UNL1        0.1932
     26 N         140.1842  141.4967  160.0034 N.ar    1  UNL1       -0.2884
     27 C         141.3479  140.5697  160.1952 C.3     1  UNL1        0.1340
     28 C         138.6565  139.3438  166.4734 C.3     1  UNL1        0.0310
     29 C         138.7674  139.9502  165.1059 C.ar    1  UNL1       -0.0218
     30 C         139.9059  139.5692  164.2067 C.ar    1  UNL1       -0.0042
     31 C         140.0168  140.1756  162.8392 C.ar    1  UNL1        0.0027
     32 C         138.9892  141.1629  162.3709 C.ar    1  UNL1        0.0359
     33 C         137.8507  141.5438  163.2702 C.ar    1  UNL1        0.0027
     34 C         137.7398  140.9374  164.6377 C.ar    1  UNL1       -0.0042
@<TRIPOS>BOND
     1    28    29    1
     2    29    30   ar
     3    30    31   ar
     4    31    32   ar
     5    32    22    1
     6    22    23   ar
     7    23    24   ar
     8    24    25   ar
     9    25    21    1
    10    21    20    1
    11    20    19    1
    12    19     1    1
    13     1     2    1
    14     2     3    1
    15     3     4    1
    16     4     5    1
    17     5     6   ar
    18     6     7   ar
    19     7     8   ar
    20     8    13    1
    21    13    14   ar
    22    14    15   ar
    23    15    16    1
    24    15    17   ar
    25    17    18   ar
    26     8     9   ar
    27     9    10   ar
    28    10    11    1
    29    11    12    1
    30    25    26   ar
    31    26    27    1
    32    32    33   ar
    33    33    34   ar
    34    34    29   ar
    35    26    22   ar
    36    12     2    1
    37    10     5   ar
    38    18    13   ar
@<TRIPOS>MOLECULE
*****
 34 38 0 0 0
SMALL
GASTEIGER

@<TRIPOS>ATOM
      1 C         138.2027  141.7154  159.3438 C.3     1  UNL1        0.0730
      2 N         138.3591  141.1986  160.7432 N.3     1  UNL1       -0.2720
      3 C         138.3449  139.7059  160.8910 C.3     1  UNL1        0.0768
      4 C         138.4770  138.8887  162.1420 C.3     1  UNL1        0.0433
      5 C         138.6561  139.3623  163.5539 C.ar    1  UNL1       -0.0247
      6 C         138.7460  138.2108  164.5110 C.ar    1  UNL1       -0.0045
      7 C         138.9269  138.4670  165.9778 C.ar    1  UNL1        0.0013
      8 C         139.0180  139.8748  166.4876 C.ar    1  UNL1        0.0206
      9 C         138.9281  141.0263  165.5305 C.ar    1  UNL1       -0.0029
     10 C         138.7471  140.7701  164.0637 C.ar    1  UNL1       -0.0246
     11 C         138.6817  142.0519  163.2875 C.3     1  UNL1        0.0433
     12 C         138.5090  142.2426  161.8097 C.3     1  UNL1        0.0768
     13 C         139.1989  140.1310  167.9544 C.ar    1  UNL1        0.1227
     14 C         140.2263  141.0328  168.5718 C.ar    1  UNL1        0.0580
     15 C         140.0466  140.9896  170.0603 C.ar    1  UNL1        0.1548
     16 C         140.8622  141.7427  171.0691 C.3     1  UNL1        0.0754
     17 O         138.9081  140.0611  170.3630 O.2     1  UNL1       -0.3578
     18 N         138.3842  139.5304  169.0615 N.ar    1  UNL1       -0.0774
     19 C         139.0786  142.8300  158.8536 C.3     1  UNL1        0.0294
     20 C         140.2267  142.5330  157.9349 C.3     1  UNL1        0.0666
     21 S         141.5786  142.2162  158.5022 S.3     1  UNL1       -0.0756
     22 C         142.0319  140.0440  161.6868 C.ar    1  UNL1        0.1668
     23 N         141.8517  138.9868  160.6380 N.ar    1  UNL1       -0.1282
     24 N         141.6601  139.6719  159.3175 N.ar    1  UNL1       -0.1221
     25 C         141.7217  141.1525  159.5501 C.ar    1  UNL1        0.1932
     26 N         141.9515  141.3824  161.0144 N.ar    1  UNL1       -0.2884
     27 C         142.0786  142.7166  161.6881 C.3     1  UNL1        0.1340
     28 C         142.9182  139.0870  167.5433 C.3     1  UNL1        0.0310
     29 C         142.6967  139.3263  166.0791 C.ar    1  UNL1       -0.0218
     30 C         142.6470  140.7280  165.5474 C.ar    1  UNL1       -0.0042
     31 C         142.4254  140.9672  164.0832 C.ar    1  UNL1        0.0027
     32 C         142.2535  139.8048  163.1509 C.ar    1  UNL1        0.0359
     33 C         142.3031  138.4032  163.6828 C.ar    1  UNL1        0.0027
     34 C         142.5247  138.1639  165.1469 C.ar    1  UNL1       -0.0042
@<TRIPOS>BOND
     1    28    29    1
     2    29    30   ar
     3    30    31   ar
     4    31    32   ar
     5    32    22    1
     6    22    23   ar
     7    23    24   ar
     8    24    25   ar
     9    25    21    1
    10    21    20    1
    11    20    19    1
    12    19     1    1
    13     1     2    1
    14     2     3    1
    15     3     4    1
    16     4     5    1
    17     5     6   ar
    18     6     7   ar
    19     7     8   ar
    20     8    13    1
    21    13    14   ar
    22    14    15   ar
    23    15    16    1
    24    15    17   ar
    25    17    18   ar
    26     8     9   ar
    27     9    10   ar
    28    10    11    1
    29    11    12    1
    30    25    26   ar
    31    26    27    1
    32    32    33   ar
    33    33    34   ar
    34    34    29   ar
    35    26    22   ar
    36    12     2    1
    37    10     5   ar
    38    18    13   ar
@<TRIPOS>MOLECULE
*****
 34 38 0 0 0
SMALL
GASTEIGER

@<TRIPOS>ATOM
      1 C         141.7635  142.8840  159.2492 C.3     1  UNL1        0.0730
      2 N         141.8815  142.1009  160.5231 N.3     1  UNL1       -0.2720
      3 C         142.1690  140.6374  160.3630 C.3     1  UNL1        0.0768
      4 C         142.3425  139.5963  161.4290 C.3     1  UNL1        0.0433
      5 C         142.2713  139.7617  162.9180 C.ar    1  UNL1       -0.0247
      6 C         142.5047  138.4598  163.6257 C.ar    1  UNL1       -0.0045
      7 C         142.4759  138.4052  165.1245 C.ar    1  UNL1        0.0013
      8 C         142.2137  139.6523  165.9156 C.ar    1  UNL1        0.0206
      9 C         141.9803  140.9542  165.2079 C.ar    1  UNL1       -0.0029
     10 C         142.0091  141.0088  163.7092 C.ar    1  UNL1       -0.0246
     11 C         141.7533  142.3988  163.2065 C.3     1  UNL1        0.0433
     12 C         141.6966  142.8847  161.7885 C.3     1  UNL1        0.0768
     13 C         142.1848  139.5977  167.4143 C.ar    1  UNL1        0.1227
     14 C         141.2283  140.3334  168.3051 C.ar    1  UNL1        0.0580
     15 C         141.5598  139.9882  169.7267 C.ar    1  UNL1        0.1548
     16 C         140.8537  140.5019  170.9464 C.3     1  UNL1        0.0754
     17 O         142.7212  139.0390  169.7145 O.2     1  UNL1       -0.3578
     18 N         143.1076  138.7976  168.2853 N.ar    1  UNL1       -0.0774
     19 C         140.5104  143.6545  158.9558 C.3     1  UNL1        0.0294
     20 C         139.5892  143.2002  157.8626 C.3     1  UNL1        0.0666
     21 S         138.4204  142.3172  158.1854 S.3     1  UNL1       -0.0756
     22 C         138.6248  140.0470  161.3271 C.ar    1  UNL1        0.1668
     23 N         138.9371  139.0637  160.2381 N.ar    1  UNL1       -0.1282
     24 N         138.8985  139.7945  158.9288 N.ar    1  UNL1       -0.1221
     25 C         138.5624  141.2294  159.2084 C.ar    1  UNL1        0.1932
     26 N         138.3932  141.3854  160.6906 N.ar    1  UNL1       -0.2884
     27 C         138.0523  142.6567  161.4101 C.3     1  UNL1        0.1340
     28 C         138.3500  138.8385  167.1976 C.3     1  UNL1        0.0310
     29 C         138.4187  139.1406  165.7300 C.ar    1  UNL1       -0.0218
     30 C         138.2077  140.5434  165.2424 C.ar    1  UNL1       -0.0042
     31 C         138.2763  140.8455  163.7747 C.ar    1  UNL1        0.0027
     32 C         138.5561  139.7449  162.7946 C.ar    1  UNL1        0.0359
     33 C         138.7671  138.3422  163.2824 C.ar    1  UNL1        0.0027
     34 C         138.6984  138.0401  164.7500 C.ar    1  UNL1       -0.0042
@<TRIPOS>BOND
     1    28    29    1
     2    29    30   ar
     3    30    31   ar
     4    31    32   ar
     5    32    22    1
     6    22    23   ar
     7    23    24   ar
     8    24    25   ar
     9    25    21    1
    10    21    20    1
    11    20    19    1
    12    19     1    1
    13     1     2    1
    14     2     3    1
    15     3     4    1
    16     4     5    1
    17     5     6   ar
    18     6     7   ar
    19     7     8   ar
    20     8    13    1
    21    13    14   ar
    22    14    15   ar
    23    15    16    1
    24    15    17   ar
    25    17    18   ar
    26     8     9   ar
    27     9    10   ar
    28    10    11    1
    29    11    12    1
    30    25    26   ar
    31    26    27    1
    32    32    33   ar
    33    33    34   ar
    34    34    29   ar
    35    26    22   ar
    36    12     2    1
    37    10     5   ar
    38    18    13   ar
@<TRIPOS>MOLECULE
*****
 34 38 0 0 0
SMALL
GASTEIGER

@<TRIPOS>ATOM
      1 C         139.3909  139.8355  158.7088 C.3     1  UNL1        0.0730
      2 N         139.3687  139.7181  160.2040 N.3     1  UNL1       -0.2720
      3 C         139.0106  138.3657  160.7453 C.3     1  UNL1        0.0768
      4 C         138.9029  137.9298  162.1766 C.3     1  UNL1        0.0433
      5 C         139.1267  138.7385  163.4199 C.ar    1  UNL1       -0.0247
      6 C         138.9141  137.9145  164.6552 C.ar    1  UNL1       -0.0045
      7 C         139.0882  138.5349  166.0097 C.ar    1  UNL1        0.0013
      8 C         139.4750  139.9793  166.1290 C.ar    1  UNL1        0.0206
      9 C         139.6876  140.8033  164.8937 C.ar    1  UNL1       -0.0029
     10 C         139.5134  140.1828  163.5392 C.ar    1  UNL1       -0.0246
     11 C         139.7719  141.1753  162.4445 C.3     1  UNL1        0.0433
     12 C         139.7075  140.9683  160.9602 C.3     1  UNL1        0.0768
     13 C         139.6491  140.5997  167.4835 C.ar    1  UNL1        0.1227
     14 C         140.2591  141.9403  167.7674 C.ar    1  UNL1        0.0580
     15 C         140.2308  142.1576  169.2513 C.ar    1  UNL1        0.1548
     16 C         140.7405  143.3686  169.9749 C.3     1  UNL1        0.0754
     17 O         139.6033  140.9513  169.8845 O.2     1  UNL1       -0.3578
     18 N         139.2438  139.9884  168.7920 N.ar    1  UNL1       -0.0774
     19 C         140.5926  140.4103  158.0194 C.3     1  UNL1        0.0294
     20 C         141.6495  139.4985  157.4698 C.3     1  UNL1        0.0666
     21 S         142.9965  139.4303  158.1261 S.3     1  UNL1       -0.0756
     22 C         143.2782  140.2686  161.9055 C.ar    1  UNL1        0.1668
     23 N         143.7231  141.5613  161.2879 N.ar    1  UNL1       -0.1282
     24 N         143.6716  141.4045  159.7970 N.ar    1  UNL1       -0.1221
     25 C         143.1950  140.0150  159.4931 C.ar    1  UNL1        0.1932
     26 N         142.9519  139.3131  160.7962 N.ar    1  UNL1       -0.2884
     27 C         142.4674  137.9031  160.9612 C.3     1  UNL1        0.1340
     28 C         142.8749  139.1221  167.7810 C.3     1  UNL1        0.0310
     29 C         142.9757  139.4087  166.3121 C.ar    1  UNL1       -0.0218
     30 C         142.7846  138.3025  165.3173 C.ar    1  UNL1       -0.0042
     31 C         142.8854  138.5891  163.8484 C.ar    1  UNL1        0.0027
     32 C         143.1774  139.9820  163.3743 C.ar    1  UNL1        0.0359
     33 C         143.3685  141.0881  164.3692 C.ar    1  UNL1        0.0027
     34 C         143.2677  140.8015  165.8381 C.ar    1  UNL1       -0.0042
@<TRIPOS>BOND
     1    28    29    1
     2    29    30   ar
     3    30    31   ar
     4    31    32   ar
     5    32    22    1
     6    22    23   ar
     7    23    24   ar
     8    24    25   ar
     9    25    21    1
    10    21    20    1
    11    20    19    1
    12    19     1    1
    13     1     2    1
    14     2     3    1
    15     3     4    1
    16     4     5    1
    17     5     6   ar
    18     6     7   ar
    19     7     8   ar
    20     8    13    1
    21    13    14   ar
    22    14    15   ar
    23    15    16    1
    24    15    17   ar
    25    17    18   ar
    26     8     9   ar
    27     9    10   ar
    28    10    11    1
    29    11    12    1
    30    25    26   ar
    31    26    27    1
    32    32    33   ar
    33    33    34   ar
    34    34    29   ar
    35    26    22   ar
    36    12     2    1
    37    10     5   ar
    38    18    13   ar
@<TRIPOS>MOLECULE
*****
 34 38 0 0 0
SMALL
GASTEIGER

@<TRIPOS>ATOM
      1 C         140.1508  145.5858  160.7505 C.3     1  UNL1        0.0730
      2 N         140.0206  144.5859  161.8610 N.3     1  UNL1       -0.2720
      3 C         139.0103  143.4988  161.6427 C.3     1  UNL1        0.0768
      4 C         138.6477  142.3625  162.5525 C.3     1  UNL1        0.0433
      5 C         139.2060  142.0328  163.9050 C.ar    1  UNL1       -0.0247
      6 C         138.5638  140.8042  164.4782 C.ar    1  UNL1       -0.0045
      7 C         138.9804  140.3007  165.8284 C.ar    1  UNL1        0.0013
      8 C         140.0390  141.0257  166.6054 C.ar    1  UNL1        0.0206
      9 C         140.6811  142.2542  166.0322 C.ar    1  UNL1       -0.0029
     10 C         140.2646  142.7577  164.6821 C.ar    1  UNL1       -0.0246
     11 C         141.0264  143.9915  164.2983 C.3     1  UNL1        0.0433
     12 C         140.9178  144.8051  163.0428 C.3     1  UNL1        0.0768
     13 C         140.4555  140.5222  167.9556 C.ar    1  UNL1        0.1227
     14 C         141.8328  140.6102  168.5431 C.ar    1  UNL1        0.0580
     15 C         141.7964  139.9847  169.9059 C.ar    1  UNL1        0.1548
     16 C         142.9562  139.8564  170.8484 C.3     1  UNL1        0.0754
     17 O         140.3965  139.5099  170.1607 O.2     1  UNL1       -0.3578
     18 N         139.5677  139.8421  168.9554 N.ar    1  UNL1       -0.0774
     19 C         140.2651  145.1183  159.3298 C.3     1  UNL1        0.0294
     20 C         141.6024  145.1034  158.6504 C.3     1  UNL1        0.0666
     21 S         142.4082  143.8389  158.6086 S.3     1  UNL1       -0.0756
     22 C         142.0328  141.1389  161.3717 C.ar    1  UNL1        0.1668
     23 N         140.9681  140.7137  160.4043 N.ar    1  UNL1       -0.1282
     24 N         140.9792  141.6734  159.2515 N.ar    1  UNL1       -0.1221
     25 C         142.0507  142.6917  159.5064 C.ar    1  UNL1        0.1932
     26 N         142.7018  142.3614  160.8167 N.ar    1  UNL1       -0.2884
     27 C         143.8249  143.1203  161.4592 C.3     1  UNL1        0.1340
     28 C         143.3789  138.4261  166.5512 C.3     1  UNL1        0.0310
     29 C         143.0424  139.1043  165.2563 C.ar    1  UNL1       -0.0218
     30 C         141.9965  138.5203  164.3535 C.ar    1  UNL1       -0.0042
     31 C         141.6600  139.1985  163.0586 C.ar    1  UNL1        0.0027
     32 C         142.3693  140.4608  162.6665 C.ar    1  UNL1        0.0359
     33 C         143.4152  141.0447  163.5694 C.ar    1  UNL1        0.0027
     34 C         143.7517  140.3664  164.8643 C.ar    1  UNL1       -0.0042
@<TRIPOS>BOND
     1    28    29    1
     2    29    30   ar
     3    30    31   ar
     4    31    32   ar
     5    32    22    1
     6    22    23   ar
     7    23    24   ar
     8    24    25   ar
     9    25    21    1
    10    21    20    1
    11    20    19    1
    12    19     1    1
    13     1     2    1
    14     2     3    1
    15     3     4    1
    16     4     5    1
    17     5     6   ar
    18     6     7   ar
    19     7     8   ar
    20     8    13    1
    21    13    14   ar
    22    14    15   ar
    23    15    16    1
    24    15    17   ar
    25    17    18   ar
    26     8     9   ar
    27     9    10   ar
    28    10    11    1
    29    11    12    1
    30    25    26   ar
    31    26    27    1
    32    32    33   ar
    33    33    34   ar
    34    34    29   ar
    35    26    22   ar
    36    12     2    1
    37    10     5   ar
    38    18    13   ar
@<TRIPOS>MOLECULE
*****
 34 38 0 0 0
SMALL
GASTEIGER

@<TRIPOS>ATOM
      1 C         144.5740  142.4171  159.6853 C.3     1  UNL1        0.0730
      2 N         144.1351  141.7297  160.9442 N.3     1  UNL1       -0.2720
      3 C         143.5053  140.3803  160.7633 C.3     1  UNL1        0.0768
      4 C         142.9689  139.4505  161.8110 C.3     1  UNL1        0.0433
      5 C         142.9297  139.6404  163.2983 C.ar    1  UNL1       -0.0247
      6 C         142.3058  138.4617  163.9851 C.ar    1  UNL1       -0.0045
      7 C         142.1694  138.4497  165.4788 C.ar    1  UNL1        0.0013
      8 C         142.6569  139.6163  166.2859 C.ar    1  UNL1        0.0206
      9 C         143.2808  140.7950  165.5992 C.ar    1  UNL1       -0.0029
     10 C         143.4172  140.8070  164.1055 C.ar    1  UNL1       -0.0246
     11 C         144.0643  142.0719  163.6245 C.3     1  UNL1        0.0433
     12 C         144.3838  142.4824  162.2175 C.3     1  UNL1        0.0768
     13 C         142.5205  139.6043  167.7796 C.ar    1  UNL1        0.1227
     14 C         141.7352  140.5832  168.6012 C.ar    1  UNL1        0.0580
     15 C         141.8748  140.1951  170.0434 C.ar    1  UNL1        0.1548
     16 C         141.2521  140.9018  171.2108 C.3     1  UNL1        0.0754
     17 O         142.7464  138.9763  170.1131 O.2     1  UNL1       -0.3578
     18 N         143.1455  138.6111  168.7141 N.ar    1  UNL1       -0.0774
     19 C         143.6208  142.5569  158.5357 C.3     1  UNL1        0.0294
     20 C         142.8043  143.8064  158.3860 C.3     1  UNL1        0.0666
     21 S         141.4004  143.8524  158.9122 S.3     1  UNL1       -0.0756
     22 C         140.4285  142.6371  162.4680 C.ar    1  UNL1        0.1668
     23 N         141.0485  143.9679  162.7759 N.ar    1  UNL1       -0.1282
     24 N         141.4880  144.5851  161.4813 N.ar    1  UNL1       -0.1221
     25 C         141.1397  143.6358  160.3734 C.ar    1  UNL1        0.1932
     26 N         140.4849  142.4320  160.9832 N.ar    1  UNL1       -0.2884
     27 C         139.9757  141.2333  160.2388 C.3     1  UNL1        0.1340
     28 C         138.1271  138.8076  166.4727 C.3     1  UNL1        0.0310
     29 C         138.7025  139.7650  165.4715 C.ar    1  UNL1       -0.0218
     30 C         138.6948  139.4184  164.0121 C.ar    1  UNL1       -0.0042
     31 C         139.2701  140.3758  163.0109 C.ar    1  UNL1        0.0027
     32 C         139.8532  141.6798  163.4691 C.ar    1  UNL1        0.0359
     33 C         139.8608  142.0262  164.9285 C.ar    1  UNL1        0.0027
     34 C         139.2854  141.0688  165.9297 C.ar    1  UNL1       -0.0042
@<TRIPOS>BOND
     1    28    29    1
     2    29    30   ar
     3    30    31   ar
     4    31    32   ar
     5    32    22    1
     6    22    23   ar
     7    23    24   ar
     8    24    25   ar
     9    25    21    1
    10    21    20    1
    11    20    19    1
    12    19     1    1
    13     1     2    1
    14     2     3    1
    15     3     4    1
    16     4     5    1
    17     5     6   ar
    18     6     7   ar
    19     7     8   ar
    20     8    13    1
    21    13    14   ar
    22    14    15   ar
    23    15    16    1
    24    15    17   ar
    25    17    18   ar
    26     8     9   ar
    27     9    10   ar
    28    10    11    1
    29    11    12    1
    30    25    26   ar
    31    26    27    1
    32    32    33   ar
    33    33    34   ar
    34    34    29   ar
    35    26    22   ar
    36    12     2    1
    37    10     5   ar
    38    18    13   ar
@<TRIPOS>MOLECULE
*****
 34 38 0 0 0
SMALL
GASTEIGER

@<TRIPOS>ATOM
      1 C         138.4299  142.5189  159.5350 C.3     1  UNL1        0.0730
      2 N         138.7365  142.0910  160.9396 N.3     1  UNL1       -0.2720
      3 C         137.7848  141.0990  161.5401 C.3     1  UNL1        0.0768
      4 C         137.8158  140.4827  162.9073 C.3     1  UNL1        0.0433
      5 C         138.8060  140.7059  164.0115 C.ar    1  UNL1       -0.0247
      6 C         138.4696  139.8879  165.2230 C.ar    1  UNL1       -0.0045
      7 C         139.3369  139.9646  166.4444 C.ar    1  UNL1        0.0013
      8 C         140.5408  140.8594  166.4544 C.ar    1  UNL1        0.0206
      9 C         140.8773  141.6775  165.2429 C.ar    1  UNL1       -0.0029
     10 C         140.0099  141.6007  164.0215 C.ar    1  UNL1       -0.0246
     11 C         140.5208  142.4933  162.9296 C.3     1  UNL1        0.0433
     12 C         139.9540  142.7114  161.5580 C.3     1  UNL1        0.0768
     13 C         141.4082  140.9361  167.6757 C.ar    1  UNL1        0.1227
     14 C         142.4145  142.0070  167.9766 C.ar    1  UNL1        0.0580
     15 C         143.0498  141.6882  169.2975 C.ar    1  UNL1        0.1548
     16 C         144.1122  142.4956  169.9826 C.3     1  UNL1        0.0754
     17 O         142.4362  140.4202  169.8129 O.2     1  UNL1       -0.3578
     18 N         141.4216  139.9554  168.8107 N.ar    1  UNL1       -0.0774
     19 C         139.5112  142.5110  158.4956 C.3     1  UNL1        0.0294
     20 C         139.5645  141.4109  157.4771 C.3     1  UNL1        0.0666
     21 S         140.4200  140.2033  157.7215 S.3     1  UNL1       -0.0756
     22 C         140.9190  138.7922  161.3028 C.ar    1  UNL1        0.1668
     23 N         139.6729  138.0727  160.8787 N.ar    1  UNL1       -0.1282
     24 N         139.3344  138.5138  159.4856 N.ar    1  UNL1       -0.1221
     25 C         140.3712  139.5058  159.0486 C.ar    1  UNL1        0.1932
     26 N         141.3504  139.6779  160.1717 N.ar    1  UNL1       -0.2884
     27 C         142.5506  140.5776  160.1649 C.3     1  UNL1        0.1340
     28 C         143.6903  138.2265  166.5942 C.3     1  UNL1        0.0310
     29 C         142.9974  138.3679  165.2713 C.ar    1  UNL1       -0.0218
     30 C         141.7604  137.5698  164.9835 C.ar    1  UNL1       -0.0042
     31 C         141.0676  137.7113  163.6606 C.ar    1  UNL1        0.0027
     32 C         141.6118  138.6508  162.6256 C.ar    1  UNL1        0.0359
     33 C         142.8488  139.4488  162.9135 C.ar    1  UNL1        0.0027
     34 C         143.5416  139.3073  164.2364 C.ar    1  UNL1       -0.0042
@<TRIPOS>BOND
     1    28    29    1
     2    29    30   ar
     3    30    31   ar
     4    31    32   ar
     5    32    22    1
     6    22    23   ar
     7    23    24   ar
     8    24    25   ar
     9    25    21    1
    10    21    20    1
    11    20    19    1
    12    19     1    1
    13     1     2    1
    14     2     3    1
    15     3     4    1
    16     4     5    1
    17     5     6   ar
    18     6     7   ar
    19     7     8   ar
    20     8    13    1
    21    13    14   ar
    22    14    15   ar
    23    15    16    1
    24    15    17   ar
    25    17    18   ar
    26     8     9   ar
    27     9    10   ar
    28    10    11    1
    29    11    12    1
    30    25    26   ar
    31    26    27    1
    32    32    33   ar
    33    33    34   ar
    34    34    29   ar
    35    26    22   ar
    36    12     2    1
    37    10     5   ar
    38    18    13   ar
@<TRIPOS>MOLECULE
*****
 34 38 0 0 0
SMALL
GASTEIGER

@<TRIPOS>ATOM
      1 C         142.7809  137.6307  160.0952 C.3     1  UNL1        0.0730
      2 N         142.0057  138.1071  161.2877 N.3     1  UNL1       -0.2720
      3 C         140.5768  138.4823  161.0275 C.3     1  UNL1        0.0768
      4 C         139.5511  138.9885  161.9981 C.3     1  UNL1        0.0433
      5 C         139.7010  139.2444  163.4683 C.ar    1  UNL1       -0.0247
      6 C         138.4233  139.7505  164.0695 C.ar    1  UNL1       -0.0045
      7 C         138.3582  140.0697  165.5337 C.ar    1  UNL1        0.0013
      8 C         139.5707  139.8827  166.3968 C.ar    1  UNL1        0.0206
      9 C         140.8484  139.3766  165.7956 C.ar    1  UNL1       -0.0029
     10 C         140.9136  139.0574  164.3314 C.ar    1  UNL1       -0.0246
     11 C         142.2757  138.5683  163.9372 C.3     1  UNL1        0.0433
     12 C         142.7617  138.1454  162.5826 C.3     1  UNL1        0.0768
     13 C         139.5056  140.2019  167.8610 C.ar    1  UNL1        0.1227
     14 C         140.2882  141.2696  168.5663 C.ar    1  UNL1        0.0580
     15 C         139.9126  141.2369  170.0182 C.ar    1  UNL1        0.1548
     16 C         140.4564  142.1346  171.0899 C.3     1  UNL1        0.0754
     17 O         138.8980  140.1490  170.2102 O.2     1  UNL1       -0.3578
     18 N         138.6463  139.5093  168.8770 N.ar    1  UNL1       -0.0774
     19 C         142.3886  138.0776  158.7182 C.3     1  UNL1        0.0294
     20 C         143.0892  139.2397  158.0788 C.3     1  UNL1        0.0666
     21 S         142.5852  140.6346  158.3024 S.3     1  UNL1       -0.0756
     22 C         141.8316  142.2945  161.7291 C.ar    1  UNL1        0.1668
     23 N         143.2740  141.9195  161.8997 N.ar    1  UNL1       -0.1282
     24 N         143.7317  141.2521  160.6368 N.ar    1  UNL1       -0.1221
     25 C         142.5724  141.2146  159.6857 C.ar    1  UNL1        0.1932
     26 N         141.3981  141.8589  160.3608 N.ar    1  UNL1       -0.2884
     27 C         140.0303  142.0363  159.7712 C.3     1  UNL1        0.1340
     28 C         138.3992  145.0530  165.8046 C.3     1  UNL1        0.0310
     29 C         139.2573  144.3634  164.7857 C.ar    1  UNL1       -0.0218
     30 C         140.2370  143.3128  165.2177 C.ar    1  UNL1       -0.0042
     31 C         141.0951  142.6232  164.1988 C.ar    1  UNL1        0.0027
     32 C         140.9735  142.9841  162.7479 C.ar    1  UNL1        0.0359
     33 C         139.9938  144.0346  162.3161 C.ar    1  UNL1        0.0027
     34 C         139.1357  144.7242  163.3349 C.ar    1  UNL1       -0.0042
@<TRIPOS>BOND
     1    28    29    1
     2    29    30   ar
     3    30    31   ar
     4    31    32   ar
     5    32    22    1
     6    22    23   ar
     7    23    24   ar
     8    24    25   ar
     9    25    21    1
    10    21    20    1
    11    20    19    1
    12    19     1    1
    13     1     2    1
    14     2     3    1
    15     3     4    1
    16     4     5    1
    17     5     6   ar
    18     6     7   ar
    19     7     8   ar
    20     8    13    1
    21    13    14   ar
    22    14    15   ar
    23    15    16    1
    24    15    17   ar
    25    17    18   ar
    26     8     9   ar
    27     9    10   ar
    28    10    11    1
    29    11    12    1
    30    25    26   ar
    31    26    27    1
    32    32    33   ar
    33    33    34   ar
    34    34    29   ar
    35    26    22   ar
    36    12     2    1
    37    10     5   ar
    38    18    13   ar
