@<TRIPOS>MOLECULE
*****
 28 31 0 0 0
SMALL
GASTEIGER

@<TRIPOS>ATOM
      1 C         138.3152  139.7192  165.7941 C.3     1  UNL1        0.0310
      2 C         139.3940  140.7593  165.8602 C.ar    1  UNL1       -0.0222
      3 C         139.9012  141.3951  164.5998 C.ar    1  UNL1       -0.0046
      4 C         140.9800  142.4351  164.6659 C.ar    1  UNL1       -0.0036
      5 C         141.5516  142.8395  165.9925 C.ar    1  UNL1       -0.0045
      6 C         141.0444  142.2038  167.2529 C.ar    1  UNL1       -0.0218
      7 C         139.9656  141.1637  167.1868 C.ar    1  UNL1       -0.0085
      8 C         141.4872  143.0709  163.4055 C.2     1  UNL1       -0.0011
      9 C         142.7930  142.6281  162.8151 C.2     1  UNL1        0.0472
     10 C         143.3001  143.2639  161.5547 C.2     1  UNL1        0.2354
     11 N         142.5014  144.3424  160.8848 N.2     1  UNL1       -0.0320
     12 C         141.1956  144.7852  161.4752 C.2     1  UNL1        0.3872
     13 N         140.1967  145.8170  161.0421 N.2     1  UNL1        0.0820
     14 N         139.0721  145.8189  162.0348 N.2     1  UNL1       -0.0337
     15 C         139.3761  144.7883  163.0815 C.2     1  UNL1        0.1921
     16 C         140.6884  144.1494  162.7356 C.3     1  UNL1        0.1845
     17 C         138.5183  144.4551  164.2660 C.3     1  UNL1        0.4355
     18 F         137.6604  144.1218  165.4504 F       1  UNL1       -0.1645
     19 F         139.0949  145.1256  165.2859 F       1  UNL1       -0.1645
     20 F         137.6440  143.6041  163.3934 F       1  UNL1       -0.1645
     21 C         141.6161  142.6082  168.5794 C.3     1  UNL1        0.0331
     22 C         142.9323  141.9980  168.1983 C.3     1  UNL1        0.0054
     23 C         143.5039  142.4024  169.5248 C.3     1  UNL1        0.0007
     24 C         142.1877  143.0126  169.9060 C.3     1  UNL1        0.0054
     25 C         140.2999  143.2184  168.9606 C.3     1  UNL1        0.0691
     26 N         140.2416  144.2678  170.0308 N.3     1  UNL1       -0.3209
     27 H         140.5041  143.8553  170.9260 H       1  UNL1        0.1189
     28 H         139.2933  144.6384  170.0922 H       1  UNL1        0.1189
@<TRIPOS>BOND
     1     1     2    1
     2     2     3   ar
     3     3     4   ar
     4     4     8    1
     5     8     9    2
     6     9    10    1
     7    10    11    2
     8    11    12    1
     9    12    13    2
    10    13    14    1
    11    14    15    2
    12    15    17    1
    13    17    18    1
    14    17    19    1
    15    17    20    1
    16    15    16    1
    17     4     5   ar
    18     5     6   ar
    19     6    21    1
    20    21    25    1
    21    25    26    1
    22    21    22    1
    23    22    23    1
    24    23    24    1
    25     6     7   ar
    26     7     2   ar
    27    16     8    1
    28    24    21    1
    29    16    12    1
    30    26    27    1
    31    26    28    1
@<TRIPOS>MOLECULE
*****
 28 31 0 0 0
SMALL
GASTEIGER

@<TRIPOS>ATOM
      1 C         138.3919  138.5881  165.9104 C.3     1  UNL1        0.0310
      2 C         139.0747  139.8531  166.3385 C.ar    1  UNL1       -0.0222
      3 C         139.3189  140.9477  165.3424 C.ar    1  UNL1       -0.0046
      4 C         140.0017  142.2128  165.7705 C.ar    1  UNL1       -0.0036
      5 C         140.4404  142.3833  167.1948 C.ar    1  UNL1       -0.0045
      6 C         140.1962  141.2887  168.1909 C.ar    1  UNL1       -0.0218
      7 C         139.5133  140.0236  167.7628 C.ar    1  UNL1       -0.0085
      8 C         140.2460  143.3074  164.7744 C.2     1  UNL1       -0.0011
      9 C         139.0972  144.1229  164.2595 C.2     1  UNL1        0.0472
     10 C         139.3415  145.2174  163.2634 C.2     1  UNL1        0.2354
     11 N         140.7345  145.4965  162.7822 N.2     1  UNL1       -0.0320
     12 C         141.8833  144.6810  163.2971 C.2     1  UNL1        0.3872
     13 N         143.3545  144.7247  163.0079 N.2     1  UNL1        0.0820
     14 N         144.0195  143.6571  163.8253 N.2     1  UNL1       -0.0337
     15 C         142.9593  142.9536  164.6196 C.2     1  UNL1        0.1921
     16 C         141.6390  143.5865  164.2932 C.3     1  UNL1        0.1845
     17 C         143.1805  141.8169  165.5730 C.3     1  UNL1        0.4355
     18 F         143.4017  140.6803  166.5265 F       1  UNL1       -0.1645
     19 F         142.7718  140.7295  164.8853 F       1  UNL1       -0.1645
     20 F         143.7036  142.7787  166.5983 F       1  UNL1       -0.1645
     21 C         140.6348  141.4593  169.6152 C.3     1  UNL1        0.0331
     22 C         141.6806  142.4407  169.1756 C.3     1  UNL1        0.0054
     23 C         142.1192  142.6112  170.5999 C.3     1  UNL1        0.0007
     24 C         141.0735  141.6298  171.0394 C.3     1  UNL1        0.0054
     25 C         139.5891  140.4778  170.0547 C.3     1  UNL1        0.0691
     26 N         139.8426  139.5912  171.2377 N.3     1  UNL1       -0.3209
     27 H         140.6025  138.9458  171.0222 H       1  UNL1        0.1189
     28 H         138.9978  139.0619  171.4532 H       1  UNL1        0.1189
@<TRIPOS>BOND
     1     1     2    1
     2     2     3   ar
     3     3     4   ar
     4     4     8    1
     5     8     9    2
     6     9    10    1
     7    10    11    2
     8    11    12    1
     9    12    13    2
    10    13    14    1
    11    14    15    2
    12    15    17    1
    13    17    18    1
    14    17    19    1
    15    17    20    1
    16    15    16    1
    17     4     5   ar
    18     5     6   ar
    19     6    21    1
    20    21    25    1
    21    25    26    1
    22    21    22    1
    23    22    23    1
    24    23    24    1
    25     6     7   ar
    26     7     2   ar
    27    16     8    1
    28    24    21    1
    29    16    12    1
    30    26    27    1
    31    26    28    1
@<TRIPOS>MOLECULE
*****
 28 31 0 0 0
SMALL
GASTEIGER

@<TRIPOS>ATOM
      1 C         144.4548  139.2824  164.9281 C.3     1  UNL1        0.0310
      2 C         143.0832  139.6321  165.4243 C.ar    1  UNL1       -0.0222
      3 C         142.0135  140.0329  164.4520 C.ar    1  UNL1       -0.0046
      4 C         140.6418  140.3825  164.9482 C.ar    1  UNL1       -0.0036
      5 C         140.3398  140.3313  166.4166 C.ar    1  UNL1       -0.0045
      6 C         141.4094  139.9305  167.3888 C.ar    1  UNL1       -0.0218
      7 C         142.7811  139.5809  166.8926 C.ar    1  UNL1       -0.0085
      8 C         139.5721  140.7834  163.9760 C.2     1  UNL1       -0.0011
      9 C         139.1683  142.2230  163.8566 C.2     1  UNL1        0.0472
     10 C         138.0987  142.6238  162.8844 C.2     1  UNL1        0.2354
     11 N         137.4328  141.5849  162.0316 N.2     1  UNL1       -0.0320
     12 C         137.8365  140.1452  162.1510 C.2     1  UNL1        0.3872
     13 N         137.3621  138.9081  161.4479 N.2     1  UNL1        0.0820
     14 N         138.1385  137.7427  161.9856 N.2     1  UNL1       -0.0337
     15 C         139.0928  138.2596  163.0210 C.2     1  UNL1        0.1921
     16 C         138.9062  139.7445  163.1232 C.3     1  UNL1        0.1845
     17 C         140.0634  137.4362  163.8147 C.3     1  UNL1        0.4355
     18 F         141.0339  136.6129  164.6086 F       1  UNL1       -0.1645
     19 F         141.0873  137.2248  162.9608 F       1  UNL1       -0.1645
     20 F         139.1328  137.4730  164.9905 F       1  UNL1       -0.1645
     21 C         141.1073  139.8793  168.8572 C.3     1  UNL1        0.0331
     22 C         139.7177  140.3762  168.5887 C.3     1  UNL1        0.0054
     23 C         139.4156  140.3250  170.0570 C.3     1  UNL1        0.0007
     24 C         140.8053  139.8281  170.3256 C.3     1  UNL1        0.0054
     25 C         142.4969  139.3825  169.1257 C.3     1  UNL1        0.0691
     26 N         142.7741  138.5515  170.3433 N.3     1  UNL1       -0.3209
     27 H         142.6301  139.1163  171.1804 H       1  UNL1        0.1189
     28 H         143.7390  138.2219  170.3175 H       1  UNL1        0.1189
@<TRIPOS>BOND
     1     1     2    1
     2     2     3   ar
     3     3     4   ar
     4     4     8    1
     5     8     9    2
     6     9    10    1
     7    10    11    2
     8    11    12    1
     9    12    13    2
    10    13    14    1
    11    14    15    2
    12    15    17    1
    13    17    18    1
    14    17    19    1
    15    17    20    1
    16    15    16    1
    17     4     5   ar
    18     5     6   ar
    19     6    21    1
    20    21    25    1
    21    25    26    1
    22    21    22    1
    23    22    23    1
    24    23    24    1
    25     6     7   ar
    26     7     2   ar
    27    16     8    1
    28    24    21    1
    29    16    12    1
    30    26    27    1
    31    26    28    1
@<TRIPOS>MOLECULE
*****
 28 31 0 0 0
SMALL
GASTEIGER

@<TRIPOS>ATOM
      1 C         138.8160  138.2115  165.1073 C.3     1  UNL1        0.0310
      2 C         139.7222  139.2773  165.6486 C.ar    1  UNL1       -0.0222
      3 C         140.8971  139.7440  164.8411 C.ar    1  UNL1       -0.0046
      4 C         141.8032  140.8097  165.3823 C.ar    1  UNL1       -0.0036
      5 C         141.5346  141.4089  166.7310 C.ar    1  UNL1       -0.0045
      6 C         140.3597  140.9423  167.5384 C.ar    1  UNL1       -0.0218
      7 C         139.4535  139.8765  166.9972 C.ar    1  UNL1       -0.0085
      8 C         142.9782  141.2764  164.5749 C.2     1  UNL1       -0.0011
      9 C         144.2677  140.5113  164.6158 C.2     1  UNL1        0.0472
     10 C         145.4425  140.9779  163.8084 C.2     1  UNL1        0.2354
     11 N         145.3278  142.2097  162.9601 N.2     1  UNL1       -0.0320
     12 C         144.0383  142.9748  162.9193 C.2     1  UNL1        0.3872
     13 N         143.6303  144.2155  162.1816 N.2     1  UNL1        0.0820
     14 N         142.2033  144.5156  162.5330 N.2     1  UNL1       -0.0337
     15 C         141.7293  143.4605  163.4880 C.2     1  UNL1        0.1921
     16 C         142.8635  142.5082  163.7266 C.3     1  UNL1        0.1845
     17 C         140.3614  143.3729  164.0972 C.3     1  UNL1        0.4355
     18 F         138.9936  143.2852  164.7064 F       1  UNL1       -0.1645
     19 F         140.4447  144.1472  165.1999 F       1  UNL1       -0.1645
     20 F         139.9249  142.4643  162.9864 F       1  UNL1       -0.1645
     21 C         140.0910  141.5414  168.8870 C.3     1  UNL1        0.0331
     22 C         140.6360  142.8556  168.4117 C.3     1  UNL1        0.0054
     23 C         140.3673  143.4548  169.7604 C.3     1  UNL1        0.0007
     24 C         139.8224  142.1406  170.2357 C.3     1  UNL1        0.0054
     25 C         139.5460  140.2273  169.3623 C.3     1  UNL1        0.0691
     26 N         139.4971  139.9224  170.8302 N.3     1  UNL1       -0.3209
     27 H         140.4471  139.8553  171.1954 H       1  UNL1        0.1189
     28 H         139.0128  139.0368  170.9775 H       1  UNL1        0.1189
@<TRIPOS>BOND
     1     1     2    1
     2     2     3   ar
     3     3     4   ar
     4     4     8    1
     5     8     9    2
     6     9    10    1
     7    10    11    2
     8    11    12    1
     9    12    13    2
    10    13    14    1
    11    14    15    2
    12    15    17    1
    13    17    18    1
    14    17    19    1
    15    17    20    1
    16    15    16    1
    17     4     5   ar
    18     5     6   ar
    19     6    21    1
    20    21    25    1
    21    25    26    1
    22    21    22    1
    23    22    23    1
    24    23    24    1
    25     6     7   ar
    26     7     2   ar
    27    16     8    1
    28    24    21    1
    29    16    12    1
    30    26    27    1
    31    26    28    1
@<TRIPOS>MOLECULE
*****
 28 31 0 0 0
SMALL
GASTEIGER

@<TRIPOS>ATOM
      1 C         142.9674  138.6539  165.7871 C.3     1  UNL1        0.0310
      2 C         142.1247  139.8578  166.0880 C.ar    1  UNL1       -0.0222
      3 C         141.7356  140.7959  164.9841 C.ar    1  UNL1       -0.0046
      4 C         140.8930  141.9998  165.2850 C.ar    1  UNL1       -0.0036
      5 C         140.4393  142.2656  166.6899 C.ar    1  UNL1       -0.0045
      6 C         140.8283  141.3275  167.7938 C.ar    1  UNL1       -0.0218
      7 C         141.6711  140.1236  167.4928 C.ar    1  UNL1       -0.0085
      8 C         140.5039  142.9379  164.1811 C.2     1  UNL1       -0.0011
      9 C         141.2985  144.1879  163.9442 C.2     1  UNL1        0.0472
     10 C         140.9094  145.1260  162.8403 C.2     1  UNL1        0.2354
     11 N         139.7257  144.8141  161.9733 N.2     1  UNL1       -0.0320
     12 C         138.9311  143.5641  162.2102 C.2     1  UNL1        0.3872
     13 N         137.7247  142.9963  161.5232 N.2     1  UNL1        0.0820
     14 N         137.3681  141.7073  162.2024 N.2     1  UNL1       -0.0337
     15 C         138.3542  141.4784  163.3093 C.2     1  UNL1        0.1921
     16 C         139.3202  142.6260  163.3141 C.3     1  UNL1        0.1845
     17 C         138.3713  140.3076  164.2468 C.3     1  UNL1        0.4355
     18 F         138.3885  139.1368  165.1842 F       1  UNL1       -0.1645
     19 F         137.7416  140.7635  165.3504 F       1  UNL1       -0.1645
     20 F         139.0967  139.4936  163.2167 F       1  UNL1       -0.1645
     21 C         140.3747  141.5933  169.1986 C.3     1  UNL1        0.0331
     22 C         140.4283  143.0692  168.9366 C.3     1  UNL1        0.0054
     23 C         139.9746  143.3350  170.3415 C.3     1  UNL1        0.0007
     24 C         139.9210  141.8590  170.6034 C.3     1  UNL1        0.0054
     25 C         140.3211  140.1173  169.4605 C.3     1  UNL1        0.0691
     26 N         140.0735  139.6107  170.8505 N.3     1  UNL1       -0.3209
     27 H         140.8603  139.8619  171.4491 H       1  UNL1        0.1189
     28 H         139.9725  138.5960  170.8296 H       1  UNL1        0.1189
@<TRIPOS>BOND
     1     1     2    1
     2     2     3   ar
     3     3     4   ar
     4     4     8    1
     5     8     9    2
     6     9    10    1
     7    10    11    2
     8    11    12    1
     9    12    13    2
    10    13    14    1
    11    14    15    2
    12    15    17    1
    13    17    18    1
    14    17    19    1
    15    17    20    1
    16    15    16    1
    17     4     5   ar
    18     5     6   ar
    19     6    21    1
    20    21    25    1
    21    25    26    1
    22    21    22    1
    23    22    23    1
    24    23    24    1
    25     6     7   ar
    26     7     2   ar
    27    16     8    1
    28    24    21    1
    29    16    12    1
    30    26    27    1
    31    26    28    1
@<TRIPOS>MOLECULE
*****
 28 31 0 0 0
SMALL
GASTEIGER

@<TRIPOS>ATOM
      1 C         139.2863  144.7657  164.7912 C.3     1  UNL1        0.0310
      2 C         139.9191  143.5636  165.4273 C.ar    1  UNL1       -0.0222
      3 C         140.6785  142.5817  164.5850 C.ar    1  UNL1       -0.0046
      4 C         141.3113  141.3797  165.2211 C.ar    1  UNL1       -0.0036
      5 C         141.1848  141.1595  166.6994 C.ar    1  UNL1       -0.0045
      6 C         140.4255  142.1413  167.5417 C.ar    1  UNL1       -0.0218
      7 C         139.7926  143.3434  166.9056 C.ar    1  UNL1       -0.0085
      8 C         142.0706  140.3978  164.3788 C.2     1  UNL1       -0.0011
      9 C         143.5291  140.6154  164.1044 C.2     1  UNL1        0.0472
     10 C         144.2884  139.6335  163.2621 C.2     1  UNL1        0.2354
     11 N         143.5892  138.4341  162.6943 N.2     1  UNL1       -0.0320
     12 C         142.1306  138.2165  162.9687 C.2     1  UNL1        0.3872
     13 N         141.1804  137.1351  162.5473 N.2     1  UNL1        0.0820
     14 N         139.8339  137.4486  163.1292 N.2     1  UNL1       -0.0337
     15 C         139.9518  138.7238  163.9101 C.2     1  UNL1        0.1921
     16 C         141.3714  139.1984  163.8110 C.3     1  UNL1        0.1845
     17 C         138.8447  139.4048  164.6588 C.3     1  UNL1        0.4355
     18 F         137.7377  140.0859  165.4074 F       1  UNL1       -0.1645
     19 F         138.8993  138.8576  165.8917 F       1  UNL1       -0.1645
     20 F         138.5062  140.2012  163.4337 F       1  UNL1       -0.1645
     21 C         140.2989  141.9210  169.0200 C.3     1  UNL1        0.0331
     22 C         139.9666  140.4787  168.7767 C.3     1  UNL1        0.0054
     23 C         139.8401  140.2584  170.2551 C.3     1  UNL1        0.0007
     24 C         140.1724  141.7008  170.4984 C.3     1  UNL1        0.0054
     25 C         140.6313  143.3634  169.2634 C.3     1  UNL1        0.0691
     26 N         139.9978  144.0961  170.4086 N.3     1  UNL1       -0.3209
     27 H         138.9940  144.1773  170.2467 H       1  UNL1        0.1189
     28 H         140.4064  145.0277  170.4839 H       1  UNL1        0.1189
@<TRIPOS>BOND
     1     1     2    1
     2     2     3   ar
     3     3     4   ar
     4     4     8    1
     5     8     9    2
     6     9    10    1
     7    10    11    2
     8    11    12    1
     9    12    13    2
    10    13    14    1
    11    14    15    2
    12    15    17    1
    13    17    18    1
    14    17    19    1
    15    17    20    1
    16    15    16    1
    17     4     5   ar
    18     5     6   ar
    19     6    21    1
    20    21    25    1
    21    25    26    1
    22    21    22    1
    23    22    23    1
    24    23    24    1
    25     6     7   ar
    26     7     2   ar
    27    16     8    1
    28    24    21    1
    29    16    12    1
    30    26    27    1
    31    26    28    1
@<TRIPOS>MOLECULE
*****
 28 31 0 0 0
SMALL
GASTEIGER

@<TRIPOS>ATOM
      1 C         143.4706  138.0153  166.5590 C.3     1  UNL1        0.0310
      2 C         143.1878  139.4884  166.5574 C.ar    1  UNL1       -0.0222
      3 C         143.2629  140.2652  165.2764 C.ar    1  UNL1       -0.0046
      4 C         142.9802  141.7383  165.2749 C.ar    1  UNL1       -0.0036
      5 C         142.6222  142.4346  166.5543 C.ar    1  UNL1       -0.0045
      6 C         142.5471  141.6579  167.8353 C.ar    1  UNL1       -0.0218
      7 C         142.8299  140.1847  167.8369 C.ar    1  UNL1       -0.0085
      8 C         143.0553  142.5151  163.9938 C.2     1  UNL1       -0.0011
      9 C         144.3890  142.9194  163.4390 C.2     1  UNL1        0.0472
     10 C         144.4641  143.6962  162.1581 C.2     1  UNL1        0.2354
     11 N         143.2055  144.0687  161.4319 N.2     1  UNL1       -0.0320
     12 C         141.8718  143.6644  161.9867 C.2     1  UNL1        0.3872
     13 N         140.4717  143.8869  161.4968 N.2     1  UNL1        0.0820
     14 N         139.5312  143.2477  162.4751 N.2     1  UNL1       -0.0337
     15 C         140.3501  142.6300  163.5695 C.2     1  UNL1        0.1921
     16 C         141.7968  142.8876  163.2677 C.3     1  UNL1        0.1845
     17 C         139.8162  141.8856  164.7573 C.3     1  UNL1        0.4355
     18 F         139.2823  141.1412  165.9450 F       1  UNL1       -0.1645
     19 F         139.9717  140.5863  164.4254 F       1  UNL1       -0.1645
     20 F         139.5051  143.1878  165.4335 F       1  UNL1       -0.1645
     21 C         142.1891  142.3542  169.1148 C.3     1  UNL1        0.0331
     22 C         140.9143  142.8419  168.4927 C.3     1  UNL1        0.0054
     23 C         140.5564  143.5382  169.7722 C.3     1  UNL1        0.0007
     24 C         141.8312  143.0505  170.3942 C.3     1  UNL1        0.0054
     25 C         143.4640  141.8666  169.7368 C.3     1  UNL1        0.0691
     26 N         144.5273  142.8469  170.1348 N.3     1  UNL1       -0.3209
     27 H         144.9052  143.2958  169.3005 H       1  UNL1        0.1189
     28 H         145.2751  142.3567  170.6256 H       1  UNL1        0.1189
@<TRIPOS>BOND
     1     1     2    1
     2     2     3   ar
     3     3     4   ar
     4     4     8    1
     5     8     9    2
     6     9    10    1
     7    10    11    2
     8    11    12    1
     9    12    13    2
    10    13    14    1
    11    14    15    2
    12    15    17    1
    13    17    18    1
    14    17    19    1
    15    17    20    1
    16    15    16    1
    17     4     5   ar
    18     5     6   ar
    19     6    21    1
    20    21    25    1
    21    25    26    1
    22    21    22    1
    23    22    23    1
    24    23    24    1
    25     6     7   ar
    26     7     2   ar
    27    16     8    1
    28    24    21    1
    29    16    12    1
    30    26    27    1
    31    26    28    1
@<TRIPOS>MOLECULE
*****
 28 31 0 0 0
SMALL
GASTEIGER

@<TRIPOS>ATOM
      1 C         137.7750  140.9906  163.8541 C.3     1  UNL1        0.0310
      2 C         138.9464  141.6001  164.5657 C.ar    1  UNL1       -0.0222
      3 C         139.2491  141.2101  165.9822 C.ar    1  UNL1       -0.0046
      4 C         140.4205  141.8196  166.6939 C.ar    1  UNL1       -0.0036
      5 C         141.2891  142.8190  165.9891 C.ar    1  UNL1       -0.0045
      6 C         140.9864  143.2090  164.5727 C.ar    1  UNL1       -0.0218
      7 C         139.8150  142.5995  163.8610 C.ar    1  UNL1       -0.0085
      8 C         140.7232  141.4296  168.1103 C.2     1  UNL1       -0.0011
      9 C         140.0664  142.1576  169.2454 C.2     1  UNL1        0.0472
     10 C         140.3692  141.7676  170.6618 C.2     1  UNL1        0.2354
     11 N         141.3288  140.6496  170.9431 N.2     1  UNL1       -0.0320
     12 C         141.9857  139.9216  169.8080 C.2     1  UNL1        0.3872
     13 N         142.9669  138.7875  169.7768 N.2     1  UNL1        0.0820
     14 N         143.2705  138.4765  168.3412 N.2     1  UNL1       -0.0337
     15 C         142.4770  139.4185  167.4850 C.2     1  UNL1        0.1921
     16 C         141.6829  140.3116  168.3916 C.3     1  UNL1        0.1845
     17 C         142.4774  139.4600  165.9856 C.3     1  UNL1        0.4355
     18 F         142.4777  139.5016  164.4862 F       1  UNL1       -0.1645
     19 F         143.5274  140.2519  165.6810 F       1  UNL1       -0.1645
     20 F         141.2750  138.5636  165.9605 F       1  UNL1       -0.1645
     21 C         141.8550  144.2084  163.8680 C.3     1  UNL1        0.0331
     22 C         143.0574  143.6677  164.5833 C.3     1  UNL1        0.0054
     23 C         143.9261  144.6672  163.8786 C.3     1  UNL1        0.0007
     24 C         142.7236  145.2079  163.1633 C.3     1  UNL1        0.0054
     25 C         140.6525  144.7491  163.1527 C.3     1  UNL1        0.0691
     26 N         140.6308  146.1778  162.6963 N.3     1  UNL1       -0.3209
     27 H         140.6376  146.7944  163.5088 H       1  UNL1        0.1189
     28 H         139.7873  146.3469  162.1482 H       1  UNL1        0.1189
@<TRIPOS>BOND
     1     1     2    1
     2     2     3   ar
     3     3     4   ar
     4     4     8    1
     5     8     9    2
     6     9    10    1
     7    10    11    2
     8    11    12    1
     9    12    13    2
    10    13    14    1
    11    14    15    2
    12    15    17    1
    13    17    18    1
    14    17    19    1
    15    17    20    1
    16    15    16    1
    17     4     5   ar
    18     5     6   ar
    19     6    21    1
    20    21    25    1
    21    25    26    1
    22    21    22    1
    23    22    23    1
    24    23    24    1
    25     6     7   ar
    26     7     2   ar
    27    16     8    1
    28    24    21    1
    29    16    12    1
    30    26    27    1
    31    26    28    1
@<TRIPOS>MOLECULE
*****
 28 31 0 0 0
SMALL
GASTEIGER

@<TRIPOS>ATOM
      1 C         140.4617  139.9770  169.9738 C.3     1  UNL1        0.0310
      2 C         140.8444  140.2550  168.5504 C.ar    1  UNL1       -0.0222
      3 C         140.0093  141.1807  167.7163 C.ar    1  UNL1       -0.0046
      4 C         140.3921  141.4587  166.2929 C.ar    1  UNL1       -0.0036
      5 C         141.6099  140.8110  165.7035 C.ar    1  UNL1       -0.0045
      6 C         142.4450  139.8853  166.5375 C.ar    1  UNL1       -0.0218
      7 C         142.0623  139.6073  167.9610 C.ar    1  UNL1       -0.0085
      8 C         139.5570  142.3845  165.4588 C.2     1  UNL1       -0.0011
      9 C         139.6303  143.8661  165.6810 C.2     1  UNL1        0.0472
     10 C         138.7952  144.7917  164.8469 C.2     1  UNL1        0.2354
     11 N         137.8868  144.2358  163.7906 N.2     1  UNL1       -0.0320
     12 C         137.8135  142.7542  163.5684 C.2     1  UNL1        0.3872
     13 N         137.0165  141.9214  162.6086 N.2     1  UNL1        0.0820
     14 N         137.3589  140.4810  162.8496 N.2     1  UNL1       -0.0337
     15 C         138.3676  140.4236  163.9582 C.2     1  UNL1        0.1921
     16 C         138.6486  141.8285  164.4025 C.3     1  UNL1        0.1845
     17 C         138.9867  139.1797  164.5234 C.3     1  UNL1        0.4355
     18 F         139.6058  137.9358  165.0887 F       1  UNL1       -0.1645
     19 F         139.9986  138.9033  163.6737 F       1  UNL1       -0.1645
     20 F         137.9823  139.1861  165.6374 F       1  UNL1       -0.1645
     21 C         143.6628  139.2376  165.9481 C.3     1  UNL1        0.0331
     22 C         143.7422  140.3247  164.9176 C.3     1  UNL1        0.0054
     23 C         144.9600  139.6770  164.3282 C.3     1  UNL1        0.0007
     24 C         144.8807  138.5899  165.3587 C.3     1  UNL1        0.0054
     25 C         143.5835  138.1506  166.9787 C.3     1  UNL1        0.0691
     26 N         144.7066  137.1663  167.1186 N.3     1  UNL1       -0.3209
     27 H         144.7669  136.5970  166.2744 H       1  UNL1        0.1189
     28 H         144.5326  136.5639  167.9231 H       1  UNL1        0.1189
@<TRIPOS>BOND
     1     1     2    1
     2     2     3   ar
     3     3     4   ar
     4     4     8    1
     5     8     9    2
     6     9    10    1
     7    10    11    2
     8    11    12    1
     9    12    13    2
    10    13    14    1
    11    14    15    2
    12    15    17    1
    13    17    18    1
    14    17    19    1
    15    17    20    1
    16    15    16    1
    17     4     5   ar
    18     5     6   ar
    19     6    21    1
    20    21    25    1
    21    25    26    1
    22    21    22    1
    23    22    23    1
    24    23    24    1
    25     6     7   ar
    26     7     2   ar
    27    16     8    1
    28    24    21    1
    29    16    12    1
    30    26    27    1
    31    26    28    1
