@<TRIPOS>MOLECULE
*****
 33 37 0 0 0
SMALL
GASTEIGER

@<TRIPOS>ATOM
      1 C         138.8876  142.1218  158.5315 C.ar    1  UNL1        0.1769
      2 N         139.1310  140.8038  159.2051 N.ar    1  UNL1       -0.2086
      3 C         138.7961  140.9577  160.6591 C.ar    1  UNL1        0.1695
      4 C         138.8431  139.9936  161.8074 C.ar    1  UNL1        0.0567
      5 C         139.2934  138.5806  161.5824 C.ar    1  UNL1        0.0048
      6 C         139.3403  137.6166  162.7306 C.ar    1  UNL1        0.0033
      7 C         138.9370  138.0656  164.1038 C.ar    1  UNL1        0.0385
      8 C         138.4867  139.4786  164.3288 C.ar    1  UNL1        0.1564
      9 C         138.4398  140.4426  163.1806 C.ar    1  UNL1        0.1209
     10 N         137.9895  141.8557  163.4056 N.ar    1  UNL1       -0.2108
     11 C         137.9426  142.8197  162.2574 C.ar    1  UNL1        0.2163
     12 N         137.4923  144.2328  162.4824 N.pl3   1  UNL1       -0.3274
     13 N         138.3459  142.3707  160.8842 N.ar    1  UNL1       -0.1813
     14 N         138.4024  143.0901  159.5692 N.ar    1  UNL1       -0.1451
     15 H         137.2276  144.5275  163.3837 H       1  UNL1        0.1452
     16 H         137.4615  144.8655  161.7287 H       1  UNL1        0.1452
     17 O         138.0834  139.9276  165.7021 O.3     1  UNL1       -0.4699
     18 C         137.9988  138.9330  166.8216 C.3     1  UNL1        0.2525
     19 C         139.0934  142.4191  157.0757 C.3     1  UNL1        0.1408
     20 N         139.2047  146.6839  155.6442 N.pl3   1  UNL1       -0.3023
     21 C         140.2716  146.1746  156.5673 C.3     1  UNL1        0.1082
     22 C         140.2345  144.7530  157.0444 C.3     1  UNL1        0.0941
     23 N         139.1305  143.8407  156.5985 N.3     1  UNL1       -0.2644
     24 C         138.0634  144.3501  155.6754 C.3     1  UNL1        0.0777
     25 C         136.9594  143.4379  155.2295 C.3     1  UNL1        0.0192
     26 C         138.1005  145.7717  155.1983 C.3     1  UNL1        0.1068
     27 N         138.9085  150.5061  155.0367 N.ar    1  UNL1       -0.2481
     28 C         138.6319  149.2856  155.8638 C.ar    1  UNL1        0.1111
     29 C         139.2418  148.1055  155.1671 C.ar    1  UNL1        0.0881
     30 C         139.8953  148.5967  153.9093 C.ar    1  UNL1        0.1361
     31 N         139.6893  150.0803  153.8288 N.ar    1  UNL1       -0.1663
     32 C         138.4593  152.9523  154.2856 C.3     1  UNL1        0.0284
     33 C         138.4795  151.9064  155.3606 C.3     1  UNL1        0.1276
@<TRIPOS>BOND
     1    32    33    1
     2    33    27    1
     3    27    28   ar
     4    28    29   ar
     5    29    20    1
     6    20    21    1
     7    21    22    1
     8    22    23    1
     9    23    19    1
    10    19     1    1
    11     1     2   ar
    12     2     3   ar
    13     3     4   ar
    14     4     5   ar
    15     5     6   ar
    16     6     7   ar
    17     7     8   ar
    18     8    17    1
    19    17    18    1
    20     8     9   ar
    21     9    10   ar
    22    10    11   ar
    23    11    12    1
    24    11    13   ar
    25    13    14   ar
    26    23    24    1
    27    24    25    1
    28    24    26    1
    29    29    30   ar
    30    30    31   ar
    31    31    27   ar
    32    26    20    1
    33    14     1   ar
    34    13     3   ar
    35     9     4   ar
    36    12    15    1
    37    12    16    1
@<TRIPOS>MOLECULE
*****
 33 37 0 0 0
SMALL
GASTEIGER

@<TRIPOS>ATOM
      1 C         143.4794  142.5481  166.5861 C.ar    1  UNL1        0.1769
      2 N         142.2996  141.7050  166.2024 N.ar    1  UNL1       -0.2086
      3 C         141.5315  141.3869  167.4509 C.ar    1  UNL1        0.1695
      4 C         140.2811  140.5920  167.6850 C.ar    1  UNL1        0.0567
      5 C         139.5760  139.9456  166.5296 C.ar    1  UNL1        0.0048
      6 C         138.3257  139.1507  166.7637 C.ar    1  UNL1        0.0033
      7 C         137.7804  139.0024  168.1532 C.ar    1  UNL1        0.0385
      8 C         138.4855  139.6489  169.3086 C.ar    1  UNL1        0.1564
      9 C         139.7358  140.4437  169.0745 C.ar    1  UNL1        0.1209
     10 N         140.4409  141.0902  170.2299 N.ar    1  UNL1       -0.2108
     11 C         141.6913  141.8850  169.9958 C.ar    1  UNL1        0.2163
     12 N         142.3964  142.5316  171.1512 N.pl3   1  UNL1       -0.3274
     13 N         142.2366  142.0334  168.6063 N.ar    1  UNL1       -0.1813
     14 N         143.4404  142.7510  168.0718 N.ar    1  UNL1       -0.1451
     15 H         142.0385  142.4342  172.0631 H       1  UNL1        0.1452
     16 H         143.2171  143.0532  170.9975 H       1  UNL1        0.1452
     17 O         137.9402  139.5005  170.6981 O.3     1  UNL1       -0.4699
     18 C         136.5897  138.8837  170.9119 C.3     1  UNL1        0.2525
     19 C         144.5161  143.0927  165.6487 C.3     1  UNL1        0.1408
     20 N         144.2034  142.2842  161.2330 N.pl3   1  UNL1       -0.3023
     21 C         144.8253  141.2642  162.1400 C.3     1  UNL1        0.1082
     22 C         144.9296  141.5337  163.6119 C.3     1  UNL1        0.0941
     23 N         144.4119  142.8232  164.1768 N.3     1  UNL1       -0.2644
     24 C         143.7899  143.8433  163.2698 C.3     1  UNL1        0.0777
     25 C         143.2723  145.1328  163.8346 C.3     1  UNL1        0.0192
     26 C         143.6857  143.5738  161.7979 C.3     1  UNL1        0.1068
     27 N         144.5886  141.9575  157.3845 N.ar    1  UNL1       -0.2481
     28 C         145.0893  142.4348  158.7155 C.ar    1  UNL1        0.1111
     29 C         144.0992  142.0147  159.7611 C.ar    1  UNL1        0.0881
     30 C         142.9865  141.2777  159.0763 C.ar    1  UNL1        0.1361
     31 N         143.2890  141.2424  157.6075 N.ar    1  UNL1       -0.1663
     32 C         146.7448  142.4180  156.0102 C.3     1  UNL1        0.0284
     33 C         145.2681  142.1598  156.0627 C.3     1  UNL1        0.1276
@<TRIPOS>BOND
     1    32    33    1
     2    33    27    1
     3    27    28   ar
     4    28    29   ar
     5    29    20    1
     6    20    21    1
     7    21    22    1
     8    22    23    1
     9    23    19    1
    10    19     1    1
    11     1     2   ar
    12     2     3   ar
    13     3     4   ar
    14     4     5   ar
    15     5     6   ar
    16     6     7   ar
    17     7     8   ar
    18     8    17    1
    19    17    18    1
    20     8     9   ar
    21     9    10   ar
    22    10    11   ar
    23    11    12    1
    24    11    13   ar
    25    13    14   ar
    26    23    24    1
    27    24    25    1
    28    24    26    1
    29    29    30   ar
    30    30    31   ar
    31    31    27   ar
    32    26    20    1
    33    14     1   ar
    34    13     3   ar
    35     9     4   ar
    36    12    15    1
    37    12    16    1
@<TRIPOS>MOLECULE
*****
 33 37 0 0 0
SMALL
GASTEIGER

@<TRIPOS>ATOM
      1 C         143.6689  140.7682  163.8917 C.ar    1  UNL1        0.1769
      2 N         143.6551  140.0590  165.2134 N.ar    1  UNL1       -0.2086
      3 C         142.6042  140.6987  166.0716 C.ar    1  UNL1        0.1695
      4 C         142.1441  140.4181  167.4715 C.ar    1  UNL1        0.0567
      5 C         142.7797  139.3136  168.2627 C.ar    1  UNL1        0.0048
      6 C         142.3195  139.0331  169.6625 C.ar    1  UNL1        0.0033
      7 C         141.2236  139.8570  170.2710 C.ar    1  UNL1        0.0385
      8 C         140.5880  140.9614  169.4798 C.ar    1  UNL1        0.1564
      9 C         141.0482  141.2420  168.0800 C.ar    1  UNL1        0.1209
     10 N         140.4126  142.3465  167.2887 N.ar    1  UNL1       -0.2108
     11 C         140.8728  142.6271  165.8889 C.ar    1  UNL1        0.2163
     12 N         140.2372  143.7316  165.0976 N.pl3   1  UNL1       -0.3274
     13 N         141.9686  141.8032  165.2804 N.ar    1  UNL1       -0.1813
     14 N         142.6266  141.8461  163.9331 N.ar    1  UNL1       -0.1451
     15 H         139.5180  144.2724  165.4970 H       1  UNL1        0.1452
     16 H         140.5392  143.9157  164.1789 H       1  UNL1        0.1452
     17 O         139.4922  141.7854  170.0884 O.3     1  UNL1       -0.4699
     18 C         139.8093  143.1127  170.7110 C.3     1  UNL1        0.2525
     19 C         144.5673  140.4545  162.7321 C.3     1  UNL1        0.1408
     20 N         142.9476  138.2385  159.1662 N.pl3   1  UNL1       -0.3023
     21 C         143.1536  137.5191  160.4661 C.3     1  UNL1        0.1082
     22 C         143.6935  138.2577  161.6548 C.3     1  UNL1        0.0941
     23 N         144.0274  139.7158  161.5435 N.3     1  UNL1       -0.2644
     24 C         143.8214  140.4353  160.2435 C.3     1  UNL1        0.0777
     25 C         144.1553  141.8934  160.1322 C.3     1  UNL1        0.0192
     26 C         143.2815  139.6967  159.0548 C.3     1  UNL1        0.1068
     27 N         142.1458  135.8765  156.1924 N.ar    1  UNL1       -0.2481
     28 C         143.0109  136.2782  157.3501 C.ar    1  UNL1        0.1111
     29 C         142.4077  137.4999  157.9775 C.ar    1  UNL1        0.0881
     30 C         141.1698  137.8532  157.2075 C.ar    1  UNL1        0.1361
     31 N         141.0080  136.8499  156.1043 N.ar    1  UNL1       -0.1663
     32 C         141.9708  134.7856  153.8409 C.3     1  UNL1        0.0284
     33 C         142.3778  134.7068  155.2825 C.3     1  UNL1        0.1276
@<TRIPOS>BOND
     1    32    33    1
     2    33    27    1
     3    27    28   ar
     4    28    29   ar
     5    29    20    1
     6    20    21    1
     7    21    22    1
     8    22    23    1
     9    23    19    1
    10    19     1    1
    11     1     2   ar
    12     2     3   ar
    13     3     4   ar
    14     4     5   ar
    15     5     6   ar
    16     6     7   ar
    17     7     8   ar
    18     8    17    1
    19    17    18    1
    20     8     9   ar
    21     9    10   ar
    22    10    11   ar
    23    11    12    1
    24    11    13   ar
    25    13    14   ar
    26    23    24    1
    27    24    25    1
    28    24    26    1
    29    29    30   ar
    30    30    31   ar
    31    31    27   ar
    32    26    20    1
    33    14     1   ar
    34    13     3   ar
    35     9     4   ar
    36    12    15    1
    37    12    16    1
@<TRIPOS>MOLECULE
*****
 33 37 0 0 0
SMALL
GASTEIGER

@<TRIPOS>ATOM
      1 C         139.7591  138.3340  163.5044 C.ar    1  UNL1        0.1769
      2 N         140.7773  139.2839  164.0620 N.ar    1  UNL1       -0.2086
      3 C         140.3980  139.5895  165.4807 C.ar    1  UNL1        0.1695
      4 C         141.0314  140.4625  166.5232 C.ar    1  UNL1        0.0567
      5 C         142.2840  141.2235  166.2040 C.ar    1  UNL1        0.0048
      6 C         142.9174  142.0964  167.2465 C.ar    1  UNL1        0.0033
      7 C         142.2981  142.2084  168.6081 C.ar    1  UNL1        0.0385
      8 C         141.0455  141.4475  168.9272 C.ar    1  UNL1        0.1564
      9 C         140.4122  140.5746  167.8848 C.ar    1  UNL1        0.1209
     10 N         139.1595  139.8136  168.2039 N.ar    1  UNL1       -0.2108
     11 C         138.5261  138.9406  167.1615 C.ar    1  UNL1        0.2163
     12 N         137.2734  138.1796  167.4806 N.pl3   1  UNL1       -0.3274
     13 N         139.1453  138.8286  165.7998 N.ar    1  UNL1       -0.1813
     14 N         138.7505  138.0526  164.5784 N.ar    1  UNL1       -0.1451
     15 H         136.8670  138.2531  168.3743 H       1  UNL1        0.1452
     16 H         136.8577  137.6067  166.7964 H       1  UNL1        0.1452
     17 O         140.4263  141.5595  170.2888 O.3     1  UNL1       -0.4699
     18 C         139.7519  142.8335  170.7035 C.3     1  UNL1        0.2525
     19 C         139.7509  137.7653  162.1163 C.3     1  UNL1        0.1408
     20 N         142.5379  139.4156  158.9924 N.pl3   1  UNL1       -0.3023
     21 C         143.0424  138.4249  159.9994 C.3     1  UNL1        0.1082
     22 C         142.1134  137.8749  161.0407 C.3     1  UNL1        0.0941
     23 N         140.6799  138.3154  161.0750 N.3     1  UNL1       -0.2644
     24 C         140.1755  139.3060  160.0679 C.3     1  UNL1        0.0777
     25 C         138.7421  139.7466  160.1022 C.3     1  UNL1        0.0192
     26 C         141.1045  139.8561  159.0266 C.3     1  UNL1        0.1068
     27 N         145.1953  141.2736  156.8589 N.ar    1  UNL1       -0.2481
     28 C         144.4964  141.0355  158.1646 C.ar    1  UNL1        0.1111
     29 C         143.4670  139.9657  157.9510 C.ar    1  UNL1        0.0881
     30 C         143.5296  139.5425  156.5133 C.ar    1  UNL1        0.1361
     31 N         144.5978  140.3508  155.8383 N.ar    1  UNL1       -0.1663
     32 C         147.4685  141.8822  155.7579 C.3     1  UNL1        0.0284
     33 C         146.2981  142.2609  156.6162 C.3     1  UNL1        0.1276
@<TRIPOS>BOND
     1    32    33    1
     2    33    27    1
     3    27    28   ar
     4    28    29   ar
     5    29    20    1
     6    20    21    1
     7    21    22    1
     8    22    23    1
     9    23    19    1
    10    19     1    1
    11     1     2   ar
    12     2     3   ar
    13     3     4   ar
    14     4     5   ar
    15     5     6   ar
    16     6     7   ar
    17     7     8   ar
    18     8    17    1
    19    17    18    1
    20     8     9   ar
    21     9    10   ar
    22    10    11   ar
    23    11    12    1
    24    11    13   ar
    25    13    14   ar
    26    23    24    1
    27    24    25    1
    28    24    26    1
    29    29    30   ar
    30    30    31   ar
    31    31    27   ar
    32    26    20    1
    33    14     1   ar
    34    13     3   ar
    35     9     4   ar
    36    12    15    1
    37    12    16    1
@<TRIPOS>MOLECULE
*****
 33 37 0 0 0
SMALL
GASTEIGER

@<TRIPOS>ATOM
      1 C         139.6064  140.3187  157.5790 C.ar    1  UNL1        0.1769
      2 N         139.9903  141.6932  158.0411 N.ar    1  UNL1       -0.2086
      3 C         139.3475  141.9299  159.3755 C.ar    1  UNL1        0.1695
      4 C         139.3725  143.1052  160.3073 C.ar    1  UNL1        0.0567
      5 C         140.1537  144.3333  159.9446 C.ar    1  UNL1        0.0048
      6 C         140.1787  145.5085  160.8764 C.ar    1  UNL1        0.0033
      7 C         139.4226  145.4556  162.1708 C.ar    1  UNL1        0.0385
      8 C         138.6415  144.2275  162.5335 C.ar    1  UNL1        0.1564
      9 C         138.6165  143.0523  161.6017 C.ar    1  UNL1        0.1209
     10 N         137.8353  141.8241  161.9644 N.ar    1  UNL1       -0.2108
     11 C         137.8103  140.6489  161.0326 C.ar    1  UNL1        0.2163
     12 N         137.0291  139.4207  161.3953 N.pl3   1  UNL1       -0.3274
     13 N         138.5663  140.7018  159.7382 N.ar    1  UNL1       -0.1813
     14 N         138.7264  139.7060  158.6279 N.ar    1  UNL1       -0.1451
     15 H         136.5329  139.3860  162.2449 H       1  UNL1        0.1452
     16 H         137.0127  138.6494  160.7837 H       1  UNL1        0.1452
     17 O         137.8854  144.1746  163.8279 O.3     1  UNL1       -0.4699
     18 C         138.5229  144.6756  165.0899 C.3     1  UNL1        0.2525
     19 C         140.0285  139.6707  156.2937 C.3     1  UNL1        0.1408
     20 N         142.2383  135.7514  156.3694 N.pl3   1  UNL1       -0.3023
     21 C         142.7618  136.9227  157.1465 C.3     1  UNL1        0.1082
     22 C         142.0252  138.2292  157.1212 C.3     1  UNL1        0.0941
     23 N         140.7651  138.3643  156.3189 N.3     1  UNL1       -0.2644
     24 C         140.2415  137.1929  155.5418 C.3     1  UNL1        0.0777
     25 C         138.9813  137.3280  154.7395 C.3     1  UNL1        0.0192
     26 C         140.9781  135.8865  155.5671 C.3     1  UNL1        0.1068
     27 N         144.3026  132.5578  157.1474 N.ar    1  UNL1       -0.2481
     28 C         143.7221  133.8766  157.5645 C.ar    1  UNL1        0.1111
     29 C         142.9749  134.4450  156.3947 C.ar    1  UNL1        0.0881
     30 C         143.0936  133.4775  155.2544 C.ar    1  UNL1        0.1361
     31 N         143.9142  132.3112  155.7197 N.ar    1  UNL1       -0.1663
     32 C         144.7591  130.1970  158.1311 C.3     1  UNL1        0.0284
     33 C         145.1269  131.6459  158.0069 C.3     1  UNL1        0.1276
@<TRIPOS>BOND
     1    32    33    1
     2    33    27    1
     3    27    28   ar
     4    28    29   ar
     5    29    20    1
     6    20    21    1
     7    21    22    1
     8    22    23    1
     9    23    19    1
    10    19     1    1
    11     1     2   ar
    12     2     3   ar
    13     3     4   ar
    14     4     5   ar
    15     5     6   ar
    16     6     7   ar
    17     7     8   ar
    18     8    17    1
    19    17    18    1
    20     8     9   ar
    21     9    10   ar
    22    10    11   ar
    23    11    12    1
    24    11    13   ar
    25    13    14   ar
    26    23    24    1
    27    24    25    1
    28    24    26    1
    29    29    30   ar
    30    30    31   ar
    31    31    27   ar
    32    26    20    1
    33    14     1   ar
    34    13     3   ar
    35     9     4   ar
    36    12    15    1
    37    12    16    1
@<TRIPOS>MOLECULE
*****
 33 37 0 0 0
SMALL
GASTEIGER

@<TRIPOS>ATOM
      1 C         140.6300  138.4053  158.3333 C.ar    1  UNL1        0.1769
      2 N         141.2959  138.1959  159.6610 N.ar    1  UNL1       -0.2086
      3 C         140.2923  138.4945  160.7351 C.ar    1  UNL1        0.1695
      4 C         140.3834  138.4585  162.2319 C.ar    1  UNL1        0.0567
      5 C         141.6695  138.0646  162.8957 C.ar    1  UNL1        0.0048
      6 C         141.7607  138.0287  164.3925 C.ar    1  UNL1        0.0033
      7 C         140.5656  138.3867  165.2254 C.ar    1  UNL1        0.0385
      8 C         139.2795  138.7806  164.5616 C.ar    1  UNL1        0.1564
      9 C         139.1884  138.8165  163.0649 C.ar    1  UNL1        0.1209
     10 N         137.9023  139.2104  162.4010 N.ar    1  UNL1       -0.2108
     11 C         137.8111  139.2464  160.9042 C.ar    1  UNL1        0.2163
     12 N         136.5250  139.6403  160.2403 N.pl3   1  UNL1       -0.3274
     13 N         139.0062  138.8884  160.0713 N.ar    1  UNL1       -0.1813
     14 N         139.2149  138.8333  158.5869 N.ar    1  UNL1       -0.1451
     15 H         135.7406  139.8752  160.7870 H       1  UNL1        0.1452
     16 H         136.4652  139.6639  159.2579 H       1  UNL1        0.1452
     17 O         138.0845  139.1385  165.3946 O.3     1  UNL1       -0.4699
     18 C         137.9969  138.6753  166.8186 C.3     1  UNL1        0.2525
     19 C         141.2673  138.2194  156.9882 C.3     1  UNL1        0.1408
     20 N         142.8654  134.1858  155.7939 N.pl3   1  UNL1       -0.3023
     21 C         143.5917  135.0072  156.8174 C.3     1  UNL1        0.1082
     22 C         143.0590  136.3517  157.2155 C.3     1  UNL1        0.0941
     23 N         141.8000  136.8748  156.5901 N.3     1  UNL1       -0.2644
     24 C         141.0736  136.0534  155.5665 C.3     1  UNL1        0.0777
     25 C         139.8146  136.5765  154.9411 C.3     1  UNL1        0.0192
     26 C         141.6063  134.7089  155.1684 C.3     1  UNL1        0.1068
     27 N         143.7380  130.7527  154.2070 N.ar    1  UNL1       -0.2481
     28 C         142.9350  132.0194  154.2295 C.ar    1  UNL1        0.1111
     29 C         143.3980  132.8412  155.3958 C.ar    1  UNL1        0.0881
     30 C         144.4874  132.0824  156.0942 C.ar    1  UNL1        0.1361
     31 N         144.6974  130.7916  155.3594 N.ar    1  UNL1       -0.1663
     32 C         144.8320  129.0248  152.6048 C.3     1  UNL1        0.0284
     33 C         143.6051  129.6421  153.2077 C.3     1  UNL1        0.1276
@<TRIPOS>BOND
     1    32    33    1
     2    33    27    1
     3    27    28   ar
     4    28    29   ar
     5    29    20    1
     6    20    21    1
     7    21    22    1
     8    22    23    1
     9    23    19    1
    10    19     1    1
    11     1     2   ar
    12     2     3   ar
    13     3     4   ar
    14     4     5   ar
    15     5     6   ar
    16     6     7   ar
    17     7     8   ar
    18     8    17    1
    19    17    18    1
    20     8     9   ar
    21     9    10   ar
    22    10    11   ar
    23    11    12    1
    24    11    13   ar
    25    13    14   ar
    26    23    24    1
    27    24    25    1
    28    24    26    1
    29    29    30   ar
    30    30    31   ar
    31    31    27   ar
    32    26    20    1
    33    14     1   ar
    34    13     3   ar
    35     9     4   ar
    36    12    15    1
    37    12    16    1
@<TRIPOS>MOLECULE
*****
 33 37 0 0 0
SMALL
GASTEIGER

@<TRIPOS>ATOM
      1 C         139.3904  143.1139  164.5767 C.ar    1  UNL1        0.1769
      2 N         139.4753  143.3819  166.0501 N.ar    1  UNL1       -0.2086
      3 C         140.4264  142.3879  166.6479 C.ar    1  UNL1        0.1695
      4 C         140.8994  142.1723  168.0550 C.ar    1  UNL1        0.0567
      5 C         140.3964  143.0545  169.1589 C.ar    1  UNL1        0.0048
      6 C         140.8695  142.8388  170.5659 C.ar    1  UNL1        0.0033
      7 C         141.8455  141.7409  170.8690 C.ar    1  UNL1        0.0385
      8 C         142.3485  140.8586  169.7651 C.ar    1  UNL1        0.1564
      9 C         141.8755  141.0743  168.3581 C.ar    1  UNL1        0.1209
     10 N         142.3785  140.1920  167.2541 N.ar    1  UNL1       -0.2108
     11 C         141.9054  140.4077  165.8472 C.ar    1  UNL1        0.2163
     12 N         142.4084  139.5254  164.7432 N.pl3   1  UNL1       -0.3274
     13 N         140.9294  141.5057  165.5441 N.ar    1  UNL1       -0.1813
     14 N         140.2891  141.9543  164.2639 N.ar    1  UNL1       -0.1451
     15 H         143.0490  138.8048  164.9421 H       1  UNL1        0.1452
     16 H         142.0979  139.6670  163.8197 H       1  UNL1        0.1452
     17 O         143.3246  139.7607  170.0682 O.3     1  UNL1       -0.4699
     18 C         142.8333  138.3615  170.2935 C.3     1  UNL1        0.2525
     19 C         138.5537  143.8723  163.5893 C.3     1  UNL1        0.1408
     20 N         140.2085  144.8510  159.5206 N.pl3   1  UNL1       -0.3023
     21 C         140.3778  145.8208  160.6523 C.3     1  UNL1        0.1082
     22 C         139.8262  145.4946  162.0085 C.3     1  UNL1        0.0941
     23 N         139.1053  144.1986  162.2331 N.3     1  UNL1       -0.2644
     24 C         138.9360  143.2286  161.1014 C.3     1  UNL1        0.0777
     25 C         138.2151  141.9326  161.3260 C.3     1  UNL1        0.0192
     26 C         139.4876  143.5549  159.7452 C.3     1  UNL1        0.1068
     27 N         140.9569  145.9984  155.8890 N.ar    1  UNL1       -0.2481
     28 C         140.0293  145.8853  157.0624 C.ar    1  UNL1        0.1111
     29 C         140.7601  145.1772  158.1644 C.ar    1  UNL1        0.0881
     30 C         142.1394  144.8526  157.6722 C.ar    1  UNL1        0.1361
     31 N         142.2609  145.3601  156.2658 N.ar    1  UNL1       -0.1663
     32 C         139.7317  147.8324  154.5160 C.3     1  UNL1        0.0284
     33 C         140.6366  146.6374  154.5703 C.3     1  UNL1        0.1276
@<TRIPOS>BOND
     1    32    33    1
     2    33    27    1
     3    27    28   ar
     4    28    29   ar
     5    29    20    1
     6    20    21    1
     7    21    22    1
     8    22    23    1
     9    23    19    1
    10    19     1    1
    11     1     2   ar
    12     2     3   ar
    13     3     4   ar
    14     4     5   ar
    15     5     6   ar
    16     6     7   ar
    17     7     8   ar
    18     8    17    1
    19    17    18    1
    20     8     9   ar
    21     9    10   ar
    22    10    11   ar
    23    11    12    1
    24    11    13   ar
    25    13    14   ar
    26    23    24    1
    27    24    25    1
    28    24    26    1
    29    29    30   ar
    30    30    31   ar
    31    31    27   ar
    32    26    20    1
    33    14     1   ar
    34    13     3   ar
    35     9     4   ar
    36    12    15    1
    37    12    16    1
@<TRIPOS>MOLECULE
*****
 33 37 0 0 0
SMALL
GASTEIGER

@<TRIPOS>ATOM
      1 C         143.0856  139.1758  160.3612 C.ar    1  UNL1        0.1769
      2 N         143.1768  138.2041  159.2221 N.ar    1  UNL1       -0.2086
      3 C         141.8670  138.2224  158.4914 C.ar    1  UNL1        0.1695
      4 C         141.3780  137.4708  157.2888 C.ar    1  UNL1        0.0567
      5 C         142.2787  136.4879  156.6013 C.ar    1  UNL1        0.0048
      6 C         141.7897  135.7365  155.3988 C.ar    1  UNL1        0.0033
      7 C         140.4001  135.9680  154.8836 C.ar    1  UNL1        0.0385
      8 C         139.4995  136.9509  155.5711 C.ar    1  UNL1        0.1564
      9 C         139.9884  137.7023  156.7736 C.ar    1  UNL1        0.1209
     10 N         139.0877  138.6853  157.4611 N.ar    1  UNL1       -0.2108
     11 C         139.5767  139.4368  158.6637 C.ar    1  UNL1        0.2163
     12 N         138.6760  140.4198  159.3512 N.pl3   1  UNL1       -0.3274
     13 N         140.9663  139.2053  159.1788 N.ar    1  UNL1       -0.1813
     14 N         141.7195  139.7945  160.3344 N.ar    1  UNL1       -0.1451
     15 H         137.7639  140.5717  159.0131 H       1  UNL1        0.1452
     16 H         138.9969  140.9130  160.1405 H       1  UNL1        0.1452
     17 O         138.1098  137.1824  155.0559 O.3     1  UNL1       -0.4699
     18 C         137.8752  138.1638  153.9461 C.3     1  UNL1        0.2525
     19 C         144.1703  139.4760  161.3530 C.3     1  UNL1        0.1408
     20 N         143.1132  140.4510  165.6170 N.pl3   1  UNL1       -0.3023
     21 C         142.6969  139.1383  165.0224 C.3     1  UNL1        0.1082
     22 C         143.0492  138.8133  163.6011 C.3     1  UNL1        0.0941
     23 N         143.8179  139.8010  162.7743 N.3     1  UNL1       -0.2644
     24 C         144.2343  141.1137  163.3689 C.3     1  UNL1        0.0777
     25 C         145.0030  142.1014  162.5421 C.3     1  UNL1        0.0192
     26 C         143.8819  141.4387  164.7902 C.3     1  UNL1        0.1068
     27 N         142.1898  142.0051  169.0518 N.ar    1  UNL1       -0.2481
     28 C         142.5071  142.1465  167.5925 C.ar    1  UNL1        0.1111
     29 C         142.7609  140.7759  167.0383 C.ar    1  UNL1        0.0881
     30 C         142.6004  139.7873  168.1551 C.ar    1  UNL1        0.1361
     31 N         142.2475  140.5471  169.3994 N.ar    1  UNL1       -0.1663
     32 C         140.5587  143.8441  169.8927 C.3     1  UNL1        0.0284
     33 C         141.8709  143.1249  169.9973 C.3     1  UNL1        0.1276
@<TRIPOS>BOND
     1    32    33    1
     2    33    27    1
     3    27    28   ar
     4    28    29   ar
     5    29    20    1
     6    20    21    1
     7    21    22    1
     8    22    23    1
     9    23    19    1
    10    19     1    1
    11     1     2   ar
    12     2     3   ar
    13     3     4   ar
    14     4     5   ar
    15     5     6   ar
    16     6     7   ar
    17     7     8   ar
    18     8    17    1
    19    17    18    1
    20     8     9   ar
    21     9    10   ar
    22    10    11   ar
    23    11    12    1
    24    11    13   ar
    25    13    14   ar
    26    23    24    1
    27    24    25    1
    28    24    26    1
    29    29    30   ar
    30    30    31   ar
    31    31    27   ar
    32    26    20    1
    33    14     1   ar
    34    13     3   ar
    35     9     4   ar
    36    12    15    1
    37    12    16    1
@<TRIPOS>MOLECULE
*****
 33 37 0 0 0
SMALL
GASTEIGER

@<TRIPOS>ATOM
      1 C         140.9500  138.5146  164.4405 C.ar    1  UNL1        0.1769
      2 N         140.1790  138.7126  165.7118 N.ar    1  UNL1       -0.2086
      3 C         140.7915  139.8654  166.4505 C.ar    1  UNL1        0.1695
      4 C         140.4510  140.5132  167.7600 C.ar    1  UNL1        0.0567
      5 C         139.3015  139.9987  168.5747 C.ar    1  UNL1        0.0048
      6 C         138.9610  140.6464  169.8840 C.ar    1  UNL1        0.0033
      7 C         139.7700  141.8087  170.3786 C.ar    1  UNL1        0.0385
      8 C         140.9195  142.3232  169.5639 C.ar    1  UNL1        0.1564
      9 C         141.2600  141.6755  168.2546 C.ar    1  UNL1        0.1209
     10 N         142.4096  142.1900  167.4397 N.ar    1  UNL1       -0.2108
     11 C         142.7501  141.5422  166.1304 C.ar    1  UNL1        0.2163
     12 N         143.8996  142.0567  165.3156 N.pl3   1  UNL1       -0.3274
     13 N         141.9410  140.3799  165.6358 N.ar    1  UNL1       -0.1813
     14 N         142.0390  139.5450  164.3935 N.ar    1  UNL1       -0.1451
     15 H         144.4306  142.8195  165.6402 H       1  UNL1        0.1452
     16 H         144.1231  141.6315  164.4562 H       1  UNL1        0.1452
     17 O         141.7285  143.4855  170.0585 O.3     1  UNL1       -0.4699
     18 C         143.0616  143.2505  170.7047 C.3     1  UNL1        0.2525
     19 C         140.6795  137.4695  163.3989 C.3     1  UNL1        0.1408
     20 N         141.3012  138.4189  159.0444 N.pl3   1  UNL1       -0.3023
     21 C         142.4700  138.0352  159.9027 C.3     1  UNL1        0.1082
     22 C         142.2628  137.7187  161.3542 C.3     1  UNL1        0.0941
     23 N         140.8868  137.7860  161.9474 N.3     1  UNL1       -0.2644
     24 C         139.7179  138.1697  161.0892 C.3     1  UNL1        0.0777
     25 C         138.3419  138.2370  161.6824 C.3     1  UNL1        0.0192
     26 C         139.9251  138.4862  159.6376 C.3     1  UNL1        0.1068
     27 N         142.1419  138.5492  155.2573 N.ar    1  UNL1       -0.2481
     28 C         142.1392  137.8322  156.5749 C.ar    1  UNL1        0.1111
     29 C         141.5085  138.7354  157.5929 C.ar    1  UNL1        0.0881
     30 C         141.1213  140.0108  156.9045 C.ar    1  UNL1        0.1361
     31 N         141.5129  139.8956  155.4611 N.ar    1  UNL1       -0.1663
     32 C         141.8581  137.0601  153.1475 C.3     1  UNL1        0.0284
     33 C         142.6793  138.0140  153.9633 C.3     1  UNL1        0.1276
@<TRIPOS>BOND
     1    32    33    1
     2    33    27    1
     3    27    28   ar
     4    28    29   ar
     5    29    20    1
     6    20    21    1
     7    21    22    1
     8    22    23    1
     9    23    19    1
    10    19     1    1
    11     1     2   ar
    12     2     3   ar
    13     3     4   ar
    14     4     5   ar
    15     5     6   ar
    16     6     7   ar
    17     7     8   ar
    18     8    17    1
    19    17    18    1
    20     8     9   ar
    21     9    10   ar
    22    10    11   ar
    23    11    12    1
    24    11    13   ar
    25    13    14   ar
    26    23    24    1
    27    24    25    1
    28    24    26    1
    29    29    30   ar
    30    30    31   ar
    31    31    27   ar
    32    26    20    1
    33    14     1   ar
    34    13     3   ar
    35     9     4   ar
    36    12    15    1
    37    12    16    1
