@<TRIPOS>MOLECULE
*****
 33 36 0 0 0
SMALL
GASTEIGER

@<TRIPOS>ATOM
      1 O         138.2608  139.1651  168.0834 O.2     1  UNL1       -0.2699
      2 C         139.5922  139.7040  167.6508 C.2     1  UNL1        0.2496
      3 N         140.0783  139.4675  166.2517 N.am    1  UNL1       -0.2660
      4 C         141.4096  140.0063  165.8191 C.3     1  UNL1        0.1160
      5 C         141.8957  139.7698  164.4198 C.3     1  UNL1        0.1197
      6 N         141.0505  138.9944  163.4532 N.am    1  UNL1       -0.2555
      7 C         139.7192  138.4555  163.8858 C.2     1  UNL1        0.2497
      8 O         138.8740  137.6801  162.9193 O.2     1  UNL1       -0.2727
      9 C         139.2330  138.6920  165.2850 C.3     1  UNL1        0.1799
     10 C         140.4374  140.4794  168.6175 C.ar    1  UNL1        0.0581
     11 C         141.4722  139.7736  169.4427 C.ar    1  UNL1        0.0343
     12 C         142.3173  140.5491  170.4093 C.ar    1  UNL1        0.1425
     13 F         143.3522  139.8433  171.2346 F       1  UNL1       -0.2041
     14 C         142.1277  142.0303  170.5507 C.ar    1  UNL1        0.0592
     15 C         141.0929  142.7361  169.7254 C.ar    1  UNL1        0.1425
     16 F         140.9033  144.2173  169.8668 F       1  UNL1       -0.2041
     17 C         140.2478  141.9607  168.7588 C.ar    1  UNL1        0.0343
     18 C         141.5366  138.7579  162.0541 C.ar    1  UNL1        0.0541
     19 C         140.8320  139.4009  160.8965 C.ar    1  UNL1        0.0180
     20 C         141.3182  139.1644  159.4973 C.ar    1  UNL1        0.0382
     21 C         142.5089  138.2848  159.2557 C.ar    1  UNL1        0.1386
     22 C         143.2136  137.6417  160.4133 C.ar    1  UNL1        0.0382
     23 C         142.7274  137.8782  161.8124 C.ar    1  UNL1        0.0180
     24 O         142.9951  138.0483  157.8565 O.3     1  UNL1       -0.4754
     25 C         142.1353  137.3018  156.8800 C.3     1  UNL1        0.2068
     26 C         142.4045  135.8533  156.5982 C.3     1  UNL1        0.0646
     27 C         143.4262  135.1093  157.4061 C.3     1  UNL1        0.0759
     28 N         143.8728  133.7435  156.9762 N.3     1  UNL1       -0.2726
     29 C         143.4752  133.2135  155.6304 C.3     1  UNL1        0.0721
     30 C         143.9218  131.8475  155.2005 C.3     1  UNL1        0.0174
     31 C         144.7660  131.0117  156.1162 C.3     1  UNL1        0.0029
     32 C         145.1636  131.5417  157.4620 C.3     1  UNL1        0.0174
     33 C         144.7170  132.9075  157.8919 C.3     1  UNL1        0.0721
@<TRIPOS>BOND
     1     1     2    2
     2     2    10    1
     3    10    11   ar
     4    11    12   ar
     5    12    13    1
     6    12    14   ar
     7    14    15   ar
     8    15    16    1
     9    15    17   ar
    10     2     3   am
    11     3     4    1
    12     4     5    1
    13     5     6    1
    14     6    18    1
    15    18    19   ar
    16    19    20   ar
    17    20    21   ar
    18    21    24    1
    19    24    25    1
    20    25    26    1
    21    26    27    1
    22    27    28    1
    23    28    29    1
    24    29    30    1
    25    30    31    1
    26    31    32    1
    27    32    33    1
    28    21    22   ar
    29    22    23   ar
    30     6     7   am
    31     7     8    2
    32     7     9    1
    33    17    10   ar
    34     9     3    1
    35    23    18   ar
    36    33    28    1
@<TRIPOS>MOLECULE
*****
 33 36 0 0 0
SMALL
GASTEIGER

@<TRIPOS>ATOM
      1 O         138.2021  139.1407  168.0329 O.2     1  UNL1       -0.2699
      2 C         139.5335  139.7085  167.6393 C.2     1  UNL1        0.2496
      3 N         140.0601  139.4929  166.2515 N.am    1  UNL1       -0.2660
      4 C         141.3915  140.0607  165.8578 C.3     1  UNL1        0.1160
      5 C         141.9181  139.8450  164.4699 C.3     1  UNL1        0.1197
      6 N         141.1133  139.0616  163.4757 N.am    1  UNL1       -0.2555
      7 C         139.7820  138.4937  163.8694 C.2     1  UNL1        0.2497
      8 O         138.9772  137.7103  162.8752 O.2     1  UNL1       -0.2727
      9 C         139.2553  138.7094  165.2572 C.3     1  UNL1        0.1799
     10 C         140.3383  140.4920  168.6336 C.ar    1  UNL1        0.0581
     11 C         140.1201  141.9690  168.7778 C.ar    1  UNL1        0.0343
     12 C         140.9249  142.7525  169.7720 C.ar    1  UNL1        0.1425
     13 F         140.7067  144.2295  169.9163 F       1  UNL1       -0.2041
     14 C         141.9478  142.0589  170.6221 C.ar    1  UNL1        0.0592
     15 C         142.1660  140.5819  170.4778 C.ar    1  UNL1        0.1425
     16 F         143.1889  139.8883  171.3279 F       1  UNL1       -0.2041
     17 C         141.3612  139.7985  169.4836 C.ar    1  UNL1        0.0343
     18 C         141.6400  138.8459  162.0879 C.ar    1  UNL1        0.0541
     19 C         141.0727  139.6280  160.9405 C.ar    1  UNL1        0.0180
     20 C         141.5994  139.4124  159.5526 C.ar    1  UNL1        0.0382
     21 C         142.6933  138.4146  159.3122 C.ar    1  UNL1        0.1386
     22 C         143.2605  137.6325  160.4596 C.ar    1  UNL1        0.0382
     23 C         142.7339  137.8481  161.8474 C.ar    1  UNL1        0.0180
     24 O         143.2199  138.1990  157.9243 O.3     1  UNL1       -0.4754
     25 C         142.5761  137.1837  157.0272 C.3     1  UNL1        0.2068
     26 C         142.8670  135.7243  157.2160 C.3     1  UNL1        0.0646
     27 C         143.7041  134.9902  156.2109 C.3     1  UNL1        0.0759
     28 N         144.0349  133.5428  156.4242 N.3     1  UNL1       -0.2726
     29 C         143.7795  132.5463  155.3325 C.3     1  UNL1        0.0721
     30 C         144.1104  131.0988  155.5459 C.3     1  UNL1        0.0174
     31 C         144.6966  130.6479  156.8509 C.3     1  UNL1        0.0029
     32 C         144.9519  131.6445  157.9426 C.3     1  UNL1        0.0174
     33 C         144.6211  133.0919  157.7292 C.3     1  UNL1        0.0721
@<TRIPOS>BOND
     1     1     2    2
     2     2    10    1
     3    10    11   ar
     4    11    12   ar
     5    12    13    1
     6    12    14   ar
     7    14    15   ar
     8    15    16    1
     9    15    17   ar
    10     2     3   am
    11     3     4    1
    12     4     5    1
    13     5     6    1
    14     6    18    1
    15    18    19   ar
    16    19    20   ar
    17    20    21   ar
    18    21    24    1
    19    24    25    1
    20    25    26    1
    21    26    27    1
    22    27    28    1
    23    28    29    1
    24    29    30    1
    25    30    31    1
    26    31    32    1
    27    32    33    1
    28    21    22   ar
    29    22    23   ar
    30     6     7   am
    31     7     8    2
    32     7     9    1
    33    17    10   ar
    34     9     3    1
    35    23    18   ar
    36    33    28    1
@<TRIPOS>MOLECULE
*****
 33 36 0 0 0
SMALL
GASTEIGER

@<TRIPOS>ATOM
      1 O         138.9460  139.4506  168.2550 O.2     1  UNL1       -0.2699
      2 C         139.7662  140.5417  167.6333 C.2     1  UNL1        0.2496
      3 N         139.7354  140.7497  166.1481 N.am    1  UNL1       -0.2660
      4 C         140.5557  141.8408  165.5264 C.3     1  UNL1        0.1160
      5 C         140.5248  142.0487  164.0411 C.3     1  UNL1        0.1197
      6 N         139.6737  141.1655  163.1777 N.am    1  UNL1       -0.2555
      7 C         138.8535  140.0744  163.7994 C.2     1  UNL1        0.2497
      8 O         138.0024  139.1911  162.9360 O.2     1  UNL1       -0.2727
      9 C         138.8843  139.8664  165.2846 C.3     1  UNL1        0.1799
     10 C         140.6174  141.4250  168.4968 C.ar    1  UNL1        0.0581
     11 C         141.9897  140.9775  168.9048 C.ar    1  UNL1        0.0343
     12 C         142.8407  141.8607  169.7682 C.ar    1  UNL1        0.1425
     13 F         144.2131  141.4132  170.1762 F       1  UNL1       -0.2041
     14 C         142.3194  143.1914  170.2237 C.ar    1  UNL1        0.0592
     15 C         140.9471  143.6389  169.8158 C.ar    1  UNL1        0.1425
     16 F         140.4259  144.9696  170.2713 F       1  UNL1       -0.2041
     17 C         140.0961  142.7557  168.9523 C.ar    1  UNL1        0.0343
     18 C         139.6429  141.3734  161.6925 C.ar    1  UNL1        0.0541
     19 C         138.6201  142.2865  161.0841 C.ar    1  UNL1        0.0180
     20 C         138.5893  142.4944  159.5988 C.ar    1  UNL1        0.0382
     21 C         139.5813  141.7893  158.7221 C.ar    1  UNL1        0.1386
     22 C         140.6042  140.8762  159.3306 C.ar    1  UNL1        0.0382
     23 C         140.6350  140.6683  160.8157 C.ar    1  UNL1        0.0180
     24 O         139.5505  141.9972  157.2369 O.3     1  UNL1       -0.4754
     25 C         139.9303  143.3278  156.6579 C.3     1  UNL1        0.2068
     26 C         141.0283  144.1335  157.2867 C.3     1  UNL1        0.0646
     27 C         140.6939  145.3363  158.1183 C.3     1  UNL1        0.0759
     28 N         140.8308  145.2776  159.6109 N.3     1  UNL1       -0.2726
     29 C         139.9015  146.0709  160.4810 C.3     1  UNL1        0.0721
     30 C         140.0384  146.0122  161.9737 C.3     1  UNL1        0.0174
     31 C         141.1045  145.1602  162.5961 C.3     1  UNL1        0.0029
     32 C         142.0338  144.3669  161.7260 C.3     1  UNL1        0.0174
     33 C         141.8969  144.4256  160.2334 C.3     1  UNL1        0.0721
@<TRIPOS>BOND
     1     1     2    2
     2     2    10    1
     3    10    11   ar
     4    11    12   ar
     5    12    13    1
     6    12    14   ar
     7    14    15   ar
     8    15    16    1
     9    15    17   ar
    10     2     3   am
    11     3     4    1
    12     4     5    1
    13     5     6    1
    14     6    18    1
    15    18    19   ar
    16    19    20   ar
    17    20    21   ar
    18    21    24    1
    19    24    25    1
    20    25    26    1
    21    26    27    1
    22    27    28    1
    23    28    29    1
    24    29    30    1
    25    30    31    1
    26    31    32    1
    27    32    33    1
    28    21    22   ar
    29    22    23   ar
    30     6     7   am
    31     7     8    2
    32     7     9    1
    33    17    10   ar
    34     9     3    1
    35    23    18   ar
    36    33    28    1
@<TRIPOS>MOLECULE
*****
 33 36 0 0 0
SMALL
GASTEIGER

@<TRIPOS>ATOM
      1 O         143.4433  138.4796  167.9042 O.2     1  UNL1       -0.2699
      2 C         142.5836  139.6032  167.4058 C.2     1  UNL1        0.2496
      3 N         142.4617  139.8576  165.9326 N.am    1  UNL1       -0.2660
      4 C         141.6019  140.9812  165.4342 C.3     1  UNL1        0.1160
      5 C         141.4800  141.2356  163.9609 C.3     1  UNL1        0.1197
      6 N         142.2178  140.3664  162.9861 N.am    1  UNL1       -0.2555
      7 C         143.0775  139.2429  163.4846 C.2     1  UNL1        0.2497
      8 O         143.8153  138.3737  162.5098 O.2     1  UNL1       -0.2727
      9 C         143.1995  138.9884  164.9578 C.3     1  UNL1        0.1799
     10 C         141.8458  140.4723  168.3807 C.ar    1  UNL1        0.0581
     11 C         140.4564  140.1053  168.8105 C.ar    1  UNL1        0.0343
     12 C         139.7187  140.9744  169.7853 C.ar    1  UNL1        0.1425
     13 F         138.3292  140.6074  170.2151 F       1  UNL1       -0.2041
     14 C         140.3704  142.2107  170.3303 C.ar    1  UNL1        0.0592
     15 C         141.7598  142.5777  169.9005 C.ar    1  UNL1        0.1425
     16 F         142.4114  143.8140  170.4455 F       1  UNL1       -0.2041
     17 C         142.4975  141.7086  168.9257 C.ar    1  UNL1        0.0343
     18 C         142.0959  140.6209  161.5129 C.ar    1  UNL1        0.0541
     19 C         142.8601  141.7459  160.8803 C.ar    1  UNL1        0.0180
     20 C         142.7381  142.0003  159.4071 C.ar    1  UNL1        0.0382
     21 C         141.8519  141.1297  158.5665 C.ar    1  UNL1        0.1386
     22 C         141.0877  140.0047  159.1991 C.ar    1  UNL1        0.0382
     23 C         141.2096  139.7502  160.6723 C.ar    1  UNL1        0.0180
     24 O         141.7300  141.3842  157.0933 O.3     1  UNL1       -0.4754
     25 C         140.8848  142.5190  156.5956 C.3     1  UNL1        0.2068
     26 C         139.7776  143.0607  157.4506 C.3     1  UNL1        0.0646
     27 C         139.9688  144.3462  158.1995 C.3     1  UNL1        0.0759
     28 N         139.8406  144.3698  159.6938 N.3     1  UNL1       -0.2726
     29 C         140.2383  145.5956  160.4615 C.3     1  UNL1        0.0721
     30 C         140.1100  145.6191  161.9559 C.3     1  UNL1        0.0174
     31 C         139.5841  144.4169  162.6825 C.3     1  UNL1        0.0029
     32 C         139.1865  143.1911  161.9149 C.3     1  UNL1        0.0174
     33 C         139.3147  143.1675  160.4206 C.3     1  UNL1        0.0721
@<TRIPOS>BOND
     1     1     2    2
     2     2    10    1
     3    10    11   ar
     4    11    12   ar
     5    12    13    1
     6    12    14   ar
     7    14    15   ar
     8    15    16    1
     9    15    17   ar
    10     2     3   am
    11     3     4    1
    12     4     5    1
    13     5     6    1
    14     6    18    1
    15    18    19   ar
    16    19    20   ar
    17    20    21   ar
    18    21    24    1
    19    24    25    1
    20    25    26    1
    21    26    27    1
    22    27    28    1
    23    28    29    1
    24    29    30    1
    25    30    31    1
    26    31    32    1
    27    32    33    1
    28    21    22   ar
    29    22    23   ar
    30     6     7   am
    31     7     8    2
    32     7     9    1
    33    17    10   ar
    34     9     3    1
    35    23    18   ar
    36    33    28    1
@<TRIPOS>MOLECULE
*****
 33 36 0 0 0
SMALL
GASTEIGER

@<TRIPOS>ATOM
      1 O         144.9482  137.4253  155.3869 O.2     1  UNL1       -0.2699
      2 C         143.6367  137.0411  156.0053 C.2     1  UNL1        0.2496
      3 N         142.8838  138.0316  156.8431 N.am    1  UNL1       -0.2660
      4 C         141.5723  137.6474  157.4615 C.3     1  UNL1        0.1160
      5 C         140.8194  138.6380  158.2994 C.3     1  UNL1        0.1197
      6 N         141.3781  140.0126  158.5189 N.am    1  UNL1       -0.2555
      7 C         142.6895  140.3968  157.9005 C.2     1  UNL1        0.2497
      8 O         143.2482  141.7715  158.1200 O.2     1  UNL1       -0.2727
      9 C         143.4424  139.4063  157.0627 C.3     1  UNL1        0.1799
     10 C         143.0781  135.6663  155.7857 C.ar    1  UNL1        0.0581
     11 C         143.4039  134.5621  156.7472 C.ar    1  UNL1        0.0343
     12 C         142.8453  133.1874  156.5276 C.ar    1  UNL1        0.1425
     13 F         143.1711  132.0831  157.4891 F       1  UNL1       -0.2041
     14 C         141.9609  132.9170  155.3466 C.ar    1  UNL1        0.0592
     15 C         141.6351  134.0213  154.3852 C.ar    1  UNL1        0.1425
     16 F         140.7506  133.7509  153.2043 F       1  UNL1       -0.2041
     17 C         142.1937  135.3960  154.6048 C.ar    1  UNL1        0.0343
     18 C         140.6252  141.0031  159.3568 C.ar    1  UNL1        0.0541
     19 C         139.3284  141.5719  158.8619 C.ar    1  UNL1        0.0180
     20 C         138.5756  142.5625  159.6998 C.ar    1  UNL1        0.0382
     21 C         139.1194  142.9841  161.0326 C.ar    1  UNL1        0.1386
     22 C         140.4161  142.4153  161.5275 C.ar    1  UNL1        0.0382
     23 C         141.1690  141.4248  160.6896 C.ar    1  UNL1        0.0180
     24 O         138.3665  143.9746  161.8705 O.3     1  UNL1       -0.4754
     25 C         138.2289  143.7559  163.3480 C.3     1  UNL1        0.2068
     26 C         137.4590  142.5760  163.8631 C.3     1  UNL1        0.0646
     27 C         138.1885  141.3885  164.4175 C.3     1  UNL1        0.0759
     28 N         138.5735  140.2554  163.5131 N.3     1  UNL1       -0.2726
     29 C         137.7219  139.9223  162.3240 C.3     1  UNL1        0.0721
     30 C         138.1070  138.7892  161.4196 C.3     1  UNL1        0.0174
     31 C         139.3435  137.9893  161.7043 C.3     1  UNL1        0.0029
     32 C         140.1951  138.3224  162.8933 C.3     1  UNL1        0.0174
     33 C         139.8101  139.4555  163.7977 C.3     1  UNL1        0.0721
@<TRIPOS>BOND
     1     1     2    2
     2     2    10    1
     3    10    11   ar
     4    11    12   ar
     5    12    13    1
     6    12    14   ar
     7    14    15   ar
     8    15    16    1
     9    15    17   ar
    10     2     3   am
    11     3     4    1
    12     4     5    1
    13     5     6    1
    14     6    18    1
    15    18    19   ar
    16    19    20   ar
    17    20    21   ar
    18    21    24    1
    19    24    25    1
    20    25    26    1
    21    26    27    1
    22    27    28    1
    23    28    29    1
    24    29    30    1
    25    30    31    1
    26    31    32    1
    27    32    33    1
    28    21    22   ar
    29    22    23   ar
    30     6     7   am
    31     7     8    2
    32     7     9    1
    33    17    10   ar
    34     9     3    1
    35    23    18   ar
    36    33    28    1
@<TRIPOS>MOLECULE
*****
 33 36 0 0 0
SMALL
GASTEIGER

@<TRIPOS>ATOM
      1 O         144.9254  137.2566  155.4568 O.2     1  UNL1       -0.2699
      2 C         143.5719  136.8967  155.9938 C.2     1  UNL1        0.2496
      3 N         142.8053  137.8865  156.8198 N.am    1  UNL1       -0.2660
      4 C         141.4517  137.5266  157.3568 C.3     1  UNL1        0.1160
      5 C         140.6851  138.5165  158.1830 C.3     1  UNL1        0.1197
      6 N         141.2720  139.8663  158.4720 N.am    1  UNL1       -0.2555
      7 C         142.6255  140.2262  157.9350 C.2     1  UNL1        0.2497
      8 O         143.2124  141.5760  158.2241 O.2     1  UNL1       -0.2727
      9 C         143.3922  139.2364  157.1090 C.3     1  UNL1        0.1799
     10 C         142.9850  135.5468  155.7047 C.ar    1  UNL1        0.0581
     11 C         143.1933  134.4164  156.6683 C.ar    1  UNL1        0.0343
     12 C         142.6064  133.0666  156.3792 C.ar    1  UNL1        0.1425
     13 F         142.8147  131.9361  157.3429 F       1  UNL1       -0.2041
     14 C         141.8112  132.8473  155.1264 C.ar    1  UNL1        0.0592
     15 C         141.6029  133.9777  154.1627 C.ar    1  UNL1        0.1425
     16 F         140.8077  133.7584  152.9099 F       1  UNL1       -0.2041
     17 C         142.1898  135.3275  154.4519 C.ar    1  UNL1        0.0343
     18 C         140.5053  140.8561  159.2981 C.ar    1  UNL1        0.0541
     19 C         139.4023  141.6589  158.6744 C.ar    1  UNL1        0.0180
     20 C         138.6357  142.6488  159.5006 C.ar    1  UNL1        0.0382
     21 C         138.9720  142.8358  160.9503 C.ar    1  UNL1        0.1386
     22 C         140.0750  142.0331  161.5740 C.ar    1  UNL1        0.0382
     23 C         140.8417  141.0432  160.7479 C.ar    1  UNL1        0.0180
     24 O         138.2054  143.8257  161.7764 O.3     1  UNL1       -0.4754
     25 C         137.6695  143.4265  163.1193 C.3     1  UNL1        0.2068
     26 C         138.2075  144.0699  164.3630 C.3     1  UNL1        0.0646
     27 C         139.3062  143.4037  165.1370 C.3     1  UNL1        0.0759
     28 N         140.7399  143.6978  164.8085 N.3     1  UNL1       -0.2726
     29 C         141.8305  142.8360  165.3724 C.3     1  UNL1        0.0721
     30 C         143.2643  143.1301  165.0438 C.3     1  UNL1        0.0174
     31 C         143.6074  144.2860  164.1515 C.3     1  UNL1        0.0029
     32 C         142.5168  145.1477  163.5877 C.3     1  UNL1        0.0174
     33 C         141.0830  144.8537  163.9162 C.3     1  UNL1        0.0721
@<TRIPOS>BOND
     1     1     2    2
     2     2    10    1
     3    10    11   ar
     4    11    12   ar
     5    12    13    1
     6    12    14   ar
     7    14    15   ar
     8    15    16    1
     9    15    17   ar
    10     2     3   am
    11     3     4    1
    12     4     5    1
    13     5     6    1
    14     6    18    1
    15    18    19   ar
    16    19    20   ar
    17    20    21   ar
    18    21    24    1
    19    24    25    1
    20    25    26    1
    21    26    27    1
    22    27    28    1
    23    28    29    1
    24    29    30    1
    25    30    31    1
    26    31    32    1
    27    32    33    1
    28    21    22   ar
    29    22    23   ar
    30     6     7   am
    31     7     8    2
    32     7     9    1
    33    17    10   ar
    34     9     3    1
    35    23    18   ar
    36    33    28    1
@<TRIPOS>MOLECULE
*****
 33 36 0 0 0
SMALL
GASTEIGER

@<TRIPOS>ATOM
      1 O         144.1640  139.4761  156.4402 O.2     1  UNL1       -0.2699
      2 C         143.2865  138.5773  157.2600 C.2     1  UNL1        0.2496
      3 N         143.1009  138.8428  158.7246 N.am    1  UNL1       -0.2660
      4 C         142.2234  137.9440  159.5444 C.3     1  UNL1        0.1160
      5 C         142.0378  138.2096  161.0091 C.3     1  UNL1        0.1197
      6 N         142.7296  139.3738  161.6538 N.am    1  UNL1       -0.2555
      7 C         143.6071  140.2726  160.8339 C.2     1  UNL1        0.2497
      8 O         144.2990  141.4369  161.4787 O.2     1  UNL1       -0.2727
      9 C         143.7928  140.0071  159.3694 C.3     1  UNL1        0.1799
     10 C         142.5946  137.4130  156.6152 C.ar    1  UNL1        0.0581
     11 C         141.2105  137.5764  156.0606 C.ar    1  UNL1        0.0343
     12 C         140.5187  136.4121  155.4159 C.ar    1  UNL1        0.1425
     13 F         139.1345  136.5754  154.8612 F       1  UNL1       -0.2041
     14 C         141.2109  135.0844  155.3257 C.ar    1  UNL1        0.0592
     15 C         142.5950  134.9211  155.8803 C.ar    1  UNL1        0.1425
     16 F         143.2873  133.5934  155.7901 F       1  UNL1       -0.2041
     17 C         143.2868  136.0854  156.5250 C.ar    1  UNL1        0.0343
     18 C         142.5440  139.6393  163.1184 C.ar    1  UNL1        0.0541
     19 C         141.9198  140.9248  163.5744 C.ar    1  UNL1        0.0180
     20 C         141.7342  141.1902  165.0390 C.ar    1  UNL1        0.0382
     21 C         142.1728  140.1702  166.0476 C.ar    1  UNL1        0.1386
     22 C         142.7970  138.8848  165.5916 C.ar    1  UNL1        0.0382
     23 C         142.9826  138.6193  164.1270 C.ar    1  UNL1        0.0180
     24 O         141.9872  140.4357  167.5122 O.3     1  UNL1       -0.4754
     25 C         140.7942  139.8778  168.2302 C.3     1  UNL1        0.2068
     26 C         139.4107  140.1941  167.7442 C.3     1  UNL1        0.0646
     27 C         138.6059  139.1441  167.0372 C.3     1  UNL1        0.0759
     28 N         138.6526  139.0441  165.5413 N.3     1  UNL1       -0.2726
     29 C         138.1899  140.1949  164.6979 C.3     1  UNL1        0.0721
     30 C         138.2367  140.0949  163.2019 C.3     1  UNL1        0.0174
     31 C         138.7461  138.8440  162.5495 C.3     1  UNL1        0.0029
     32 C         139.2088  137.6931  163.3929 C.3     1  UNL1        0.0174
     33 C         139.1621  137.7931  164.8888 C.3     1  UNL1        0.0721
@<TRIPOS>BOND
     1     1     2    2
     2     2    10    1
     3    10    11   ar
     4    11    12   ar
     5    12    13    1
     6    12    14   ar
     7    14    15   ar
     8    15    16    1
     9    15    17   ar
    10     2     3   am
    11     3     4    1
    12     4     5    1
    13     5     6    1
    14     6    18    1
    15    18    19   ar
    16    19    20   ar
    17    20    21   ar
    18    21    24    1
    19    24    25    1
    20    25    26    1
    21    26    27    1
    22    27    28    1
    23    28    29    1
    24    29    30    1
    25    30    31    1
    26    31    32    1
    27    32    33    1
    28    21    22   ar
    29    22    23   ar
    30     6     7   am
    31     7     8    2
    32     7     9    1
    33    17    10   ar
    34     9     3    1
    35    23    18   ar
    36    33    28    1
@<TRIPOS>MOLECULE
*****
 33 36 0 0 0
SMALL
GASTEIGER

@<TRIPOS>ATOM
      1 O         138.1805  139.1394  168.0958 O.2     1  UNL1       -0.2699
      2 C         139.5073  139.7084  167.6885 C.2     1  UNL1        0.2496
      3 N         140.0197  139.4932  166.2952 N.am    1  UNL1       -0.2660
      4 C         141.3465  140.0622  165.8879 C.3     1  UNL1        0.1160
      5 C         141.8589  139.8470  164.4946 C.3     1  UNL1        0.1197
      6 N         141.0446  139.0629  163.5087 N.am    1  UNL1       -0.2555
      7 C         139.7178  138.4939  163.9161 C.2     1  UNL1        0.2497
      8 O         138.9035  137.7098  162.9302 O.2     1  UNL1       -0.2727
      9 C         139.2054  138.7091  165.3093 C.3     1  UNL1        0.1799
     10 C         140.3217  140.4925  168.6744 C.ar    1  UNL1        0.0581
     11 C         140.1066  141.9700  168.8180 C.ar    1  UNL1        0.0343
     12 C         140.9210  142.7541  169.8039 C.ar    1  UNL1        0.1425
     13 F         140.7059  144.2317  169.9475 F       1  UNL1       -0.2041
     14 C         141.9503  142.0607  170.6462 C.ar    1  UNL1        0.0592
     15 C         142.1653  140.5831  170.5027 C.ar    1  UNL1        0.1425
     16 F         143.1947  139.8897  171.3450 F       1  UNL1       -0.2041
     17 C         141.3510  139.7991  169.5168 C.ar    1  UNL1        0.0343
     18 C         141.5571  138.8478  162.1155 C.ar    1  UNL1        0.0541
     19 C         141.0182  139.6704  160.9828 C.ar    1  UNL1        0.0180
     20 C         141.5307  139.4552  159.5896 C.ar    1  UNL1        0.0382
     21 C         142.5820  138.4175  159.3291 C.ar    1  UNL1        0.1386
     22 C         143.1208  137.5949  160.4618 C.ar    1  UNL1        0.0382
     23 C         142.6084  137.8100  161.8550 C.ar    1  UNL1        0.0180
     24 O         143.0944  138.2024  157.9358 O.3     1  UNL1       -0.4754
     25 C         142.5920  137.0469  157.1220 C.3     1  UNL1        0.2068
     26 C         141.4116  137.2263  156.2137 C.3     1  UNL1        0.0646
     27 C         140.0575  137.5133  156.7916 C.3     1  UNL1        0.0759
     28 N         139.0012  138.1572  155.9433 N.3     1  UNL1       -0.2726
     29 C         138.2826  137.3525  154.9011 C.3     1  UNL1        0.0721
     30 C         137.2263  137.9965  154.0528 C.3     1  UNL1        0.0174
     31 C         136.8886  139.4450  154.2467 C.3     1  UNL1        0.0029
     32 C         137.6072  140.2497  155.2889 C.3     1  UNL1        0.0174
     33 C         138.6635  139.6058  156.1372 C.3     1  UNL1        0.0721
@<TRIPOS>BOND
     1     1     2    2
     2     2    10    1
     3    10    11   ar
     4    11    12   ar
     5    12    13    1
     6    12    14   ar
     7    14    15   ar
     8    15    16    1
     9    15    17   ar
    10     2     3   am
    11     3     4    1
    12     4     5    1
    13     5     6    1
    14     6    18    1
    15    18    19   ar
    16    19    20   ar
    17    20    21   ar
    18    21    24    1
    19    24    25    1
    20    25    26    1
    21    26    27    1
    22    27    28    1
    23    28    29    1
    24    29    30    1
    25    30    31    1
    26    31    32    1
    27    32    33    1
    28    21    22   ar
    29    22    23   ar
    30     6     7   am
    31     7     8    2
    32     7     9    1
    33    17    10   ar
    34     9     3    1
    35    23    18   ar
    36    33    28    1
@<TRIPOS>MOLECULE
*****
 33 36 0 0 0
SMALL
GASTEIGER

@<TRIPOS>ATOM
      1 O         144.3864  142.9763  168.2747 O.2     1  UNL1       -0.2699
      2 C         143.1692  142.3127  167.7020 C.2     1  UNL1        0.2496
      3 N         142.8194  142.5065  166.2563 N.am    1  UNL1       -0.2660
      4 C         141.6022  141.8429  165.6836 C.3     1  UNL1        0.1160
      5 C         141.2525  142.0368  164.2379 C.3     1  UNL1        0.1197
      6 N         142.1199  142.8943  163.3649 N.am    1  UNL1       -0.2555
      7 C         143.3372  143.5579  163.9375 C.2     1  UNL1        0.2497
      8 O         144.2046  144.4154  163.0646 O.2     1  UNL1       -0.2727
      9 C         143.6869  143.3641  165.3832 C.3     1  UNL1        0.1799
     10 C         142.3017  141.4551  168.5751 C.ar    1  UNL1        0.0581
     11 C         140.9364  141.9309  168.9743 C.ar    1  UNL1        0.0343
     12 C         140.0690  141.0734  169.8474 C.ar    1  UNL1        0.1425
     13 F         138.7035  141.5491  170.2467 F       1  UNL1       -0.2041
     14 C         140.5669  139.7401  170.3211 C.ar    1  UNL1        0.0592
     15 C         141.9322  139.2644  169.9219 C.ar    1  UNL1        0.1425
     16 F         142.4302  137.9311  170.3956 F       1  UNL1       -0.2041
     17 C         142.7996  140.1219  169.0488 C.ar    1  UNL1        0.0343
     18 C         141.7702  143.0881  161.9192 C.ar    1  UNL1        0.0541
     19 C         141.1920  144.3923  161.4558 C.ar    1  UNL1        0.0180
     20 C         140.8422  144.5861  160.0100 C.ar    1  UNL1        0.0382
     21 C         141.0707  143.4758  159.0277 C.ar    1  UNL1        0.1386
     22 C         141.6489  142.1716  159.4911 C.ar    1  UNL1        0.0382
     23 C         141.9987  141.9778  160.9368 C.ar    1  UNL1        0.0180
     24 O         140.7209  143.6696  157.5820 O.3     1  UNL1       -0.4754
     25 C         139.5758  142.9112  156.9792 C.3     1  UNL1        0.2068
     26 C         138.3688  142.5899  157.8100 C.3     1  UNL1        0.0646
     27 C         138.2056  141.2191  158.3967 C.3     1  UNL1        0.0759
     28 N         138.1081  141.0464  159.8835 N.3     1  UNL1       -0.2726
     29 C         137.9787  139.6728  160.4722 C.3     1  UNL1        0.0721
     30 C         137.8812  139.5002  161.9591 C.3     1  UNL1        0.0174
     31 C         137.9132  140.7011  162.8572 C.3     1  UNL1        0.0029
     32 C         138.0426  142.0747  162.2686 C.3     1  UNL1        0.0174
     33 C         138.1401  142.2474  160.7818 C.3     1  UNL1        0.0721
@<TRIPOS>BOND
     1     1     2    2
     2     2    10    1
     3    10    11   ar
     4    11    12   ar
     5    12    13    1
     6    12    14   ar
     7    14    15   ar
     8    15    16    1
     9    15    17   ar
    10     2     3   am
    11     3     4    1
    12     4     5    1
    13     5     6    1
    14     6    18    1
    15    18    19   ar
    16    19    20   ar
    17    20    21   ar
    18    21    24    1
    19    24    25    1
    20    25    26    1
    21    26    27    1
    22    27    28    1
    23    28    29    1
    24    29    30    1
    25    30    31    1
    26    31    32    1
    27    32    33    1
    28    21    22   ar
    29    22    23   ar
    30     6     7   am
    31     7     8    2
    32     7     9    1
    33    17    10   ar
    34     9     3    1
    35    23    18   ar
    36    33    28    1
