@<TRIPOS>MOLECULE
*****
 36 39 0 0 0
SMALL
GASTEIGER

@<TRIPOS>ATOM
      1 C         138.5593  140.1490  165.4126 C.ar    1  UNL1        0.1532
      2 C         137.8085  140.6240  164.2041 C.ar    1  UNL1        0.0573
      3 C         138.2909  141.8248  163.4455 C.ar    1  UNL1        0.0856
      4 N         137.5400  142.2998  162.2369 N.ar    1  UNL1       -0.2435
      5 C         138.0224  143.5006  161.4783 C.ar    1  UNL1        0.1045
      6 C         139.2557  144.2263  161.9283 C.ar    1  UNL1        0.0856
      7 C         140.0065  143.7512  163.1368 C.ar    1  UNL1        0.0557
      8 C         139.5241  142.5505  163.8954 C.ar    1  UNL1        0.0327
      9 C         140.2750  142.0754  165.1039 C.ar    1  UNL1        0.0203
     10 C         139.7926  140.8747  165.8625 C.ar    1  UNL1        0.0828
     11 N         140.5435  140.3996  167.0711 N.pl3   1  UNL1       -0.2957
     12 C         141.9078  139.7956  166.9168 C.3     1  UNL1        0.1128
     13 C         142.6587  139.3205  168.1253 C.3     1  UNL1        0.1149
     14 N         142.0453  139.4495  169.4881 N.am    1  UNL1       -0.2746
     15 C         142.7961  138.9745  170.6966 C.3     1  UNL1        0.1150
     16 C         140.6809  140.0536  169.6424 C.2     1  UNL1        0.2460
     17 O         140.0675  140.1826  171.0051 O.2     1  UNL1       -0.2730
     18 C         139.9300  140.5286  168.4338 C.3     1  UNL1        0.1774
     19 C         139.7381  145.4270  161.1697 C.2     1  UNL1        0.2455
     20 N         140.0133  145.3241  159.6988 N.am    1  UNL1       -0.3252
     21 O         139.9453  146.7308  161.8821 O.2     1  UNL1       -0.2703
     22 H         139.8774  144.4684  159.2313 H       1  UNL1        0.1453
     23 H         140.3300  146.1122  159.2009 H       1  UNL1        0.1453
     24 N         141.2398  144.4769  163.5867 N.pl3   1  UNL1       -0.3106
     25 H         141.1763  145.4083  163.8994 H       1  UNL1        0.1523
     26 C         142.5697  143.7836  163.5603 C.ar    1  UNL1        0.0763
     27 C         143.3067  143.5259  164.8410 C.ar    1  UNL1        0.0192
     28 C         144.6366  142.8326  164.8146 C.ar    1  UNL1        0.0311
     29 C         145.2295  142.3969  163.5074 C.ar    1  UNL1        0.1425
     30 F         146.5593  141.7036  163.4810 F       1  UNL1       -0.2041
     31 C         144.4924  142.6546  162.2266 C.ar    1  UNL1        0.0605
     32 C         143.1625  143.3480  162.2531 C.ar    1  UNL1        0.1556
     33 F         142.4255  143.6057  160.9723 F       1  UNL1       -0.2028
     34 O         138.0769  138.9482  166.1712 O.3     1  UNL1       -0.4742
     35 C         139.6166  137.4074  164.7552 C.3     1  UNL1        0.0512
     36 C         138.5111  137.5740  165.7552 C.3     1  UNL1        0.2056
@<TRIPOS>BOND
     1    35    36    1
     2    36    34    1
     3    34     1    1
     4     1     2   ar
     5     2     3   ar
     6     3     4   ar
     7     4     5   ar
     8     5     6   ar
     9     6    19    1
    10    19    20   am
    11    19    21    2
    12     6     7   ar
    13     7    24    1
    14    24    26    1
    15    26    27   ar
    16    27    28   ar
    17    28    29   ar
    18    29    30    1
    19    29    31   ar
    20    31    32   ar
    21    32    33    1
    22     7     8   ar
    23     8     9   ar
    24     9    10   ar
    25    10    11    1
    26    11    12    1
    27    12    13    1
    28    13    14    1
    29    14    15    1
    30    14    16   am
    31    16    17    2
    32    16    18    1
    33    10     1   ar
    34    18    11    1
    35     8     3   ar
    36    32    26   ar
    37    20    22    1
    38    20    23    1
    39    24    25    1
@<TRIPOS>MOLECULE
*****
 36 39 0 0 0
SMALL
GASTEIGER

@<TRIPOS>ATOM
      1 C         139.4957  138.2539  162.7393 C.ar    1  UNL1        0.1532
      2 C         139.4550  138.0640  161.2519 C.ar    1  UNL1        0.0573
      3 C         139.1246  139.2215  160.3568 C.ar    1  UNL1        0.0856
      4 N         139.0839  139.0315  158.8694 N.ar    1  UNL1       -0.2435
      5 C         138.7535  140.1890  157.9743 C.ar    1  UNL1        0.1045
      6 C         138.4638  141.5363  158.5666 C.ar    1  UNL1        0.0856
      7 C         138.5045  141.7262  160.0540 C.ar    1  UNL1        0.0557
      8 C         138.8349  140.5688  160.9491 C.ar    1  UNL1        0.0327
      9 C         138.8756  140.7587  162.4364 C.ar    1  UNL1        0.0203
     10 C         139.2060  139.6012  163.3315 C.ar    1  UNL1        0.0828
     11 N         139.2467  139.7912  164.8189 N.pl3   1  UNL1       -0.2957
     12 C         140.2213  140.7569  165.4253 C.3     1  UNL1        0.1128
     13 C         140.2620  140.9468  166.9126 C.3     1  UNL1        0.1149
     14 N         139.3281  140.1711  167.7937 N.am    1  UNL1       -0.2746
     15 C         139.3689  140.3610  169.2810 C.3     1  UNL1        0.1150
     16 C         138.3536  139.2054  167.1873 C.2     1  UNL1        0.2460
     17 O         137.4198  138.4296  168.0683 O.2     1  UNL1       -0.2730
     18 C         138.3129  139.0154  165.6999 C.3     1  UNL1        0.1774
     19 C         138.1335  142.6938  157.6715 C.2     1  UNL1        0.2455
     20 N         136.8799  142.6711  156.8481 N.am    1  UNL1       -0.3252
     21 O         139.0567  143.8739  157.5998 O.2     1  UNL1       -0.2703
     22 H         136.2740  141.8966  156.8951 H       1  UNL1        0.1453
     23 H         136.6631  143.4308  156.2606 H       1  UNL1        0.1453
     24 N         138.2149  143.0735  160.6462 N.pl3   1  UNL1       -0.3106
     25 H         137.3507  143.5120  160.4726 H       1  UNL1        0.1523
     26 C         139.2419  143.7528  161.5029 C.ar    1  UNL1        0.0763
     27 C         140.6754  143.7962  161.0632 C.ar    1  UNL1        0.0192
     28 C         141.7024  144.4754  161.9199 C.ar    1  UNL1        0.0311
     29 C         141.2960  145.1112  163.2163 C.ar    1  UNL1        0.1425
     30 F         142.3230  145.7904  164.0729 F       1  UNL1       -0.2041
     31 C         139.8625  145.0678  163.6560 C.ar    1  UNL1        0.0605
     32 C         138.8355  144.3885  162.7993 C.ar    1  UNL1        0.1556
     33 F         137.4020  144.3451  163.2390 F       1  UNL1       -0.2028
     34 O         139.8261  137.0965  163.6344 O.3     1  UNL1       -0.4742
     35 C         142.2618  137.9698  163.8676 C.3     1  UNL1        0.0512
     36 C         141.2182  136.9354  164.1690 C.3     1  UNL1        0.2056
@<TRIPOS>BOND
     1    35    36    1
     2    36    34    1
     3    34     1    1
     4     1     2   ar
     5     2     3   ar
     6     3     4   ar
     7     4     5   ar
     8     5     6   ar
     9     6    19    1
    10    19    20   am
    11    19    21    2
    12     6     7   ar
    13     7    24    1
    14    24    26    1
    15    26    27   ar
    16    27    28   ar
    17    28    29   ar
    18    29    30    1
    19    29    31   ar
    20    31    32   ar
    21    32    33    1
    22     7     8   ar
    23     8     9   ar
    24     9    10   ar
    25    10    11    1
    26    11    12    1
    27    12    13    1
    28    13    14    1
    29    14    15    1
    30    14    16   am
    31    16    17    2
    32    16    18    1
    33    10     1   ar
    34    18    11    1
    35     8     3   ar
    36    32    26   ar
    37    20    22    1
    38    20    23    1
    39    24    25    1
@<TRIPOS>MOLECULE
*****
 36 39 0 0 0
SMALL
GASTEIGER

@<TRIPOS>ATOM
      1 C         138.2065  141.1260  162.7404 C.ar    1  UNL1        0.1532
      2 C         137.7182  140.1987  163.8136 C.ar    1  UNL1        0.0573
      3 C         138.4247  140.1435  165.1356 C.ar    1  UNL1        0.0856
      4 N         137.9363  139.2162  166.2088 N.ar    1  UNL1       -0.2435
      5 C         138.6428  139.1610  167.5309 C.ar    1  UNL1        0.1045
      6 C         139.8376  140.0330  167.7797 C.ar    1  UNL1        0.0856
      7 C         140.3260  140.9603  166.7065 C.ar    1  UNL1        0.0557
      8 C         139.6195  141.0155  165.3845 C.ar    1  UNL1        0.0327
      9 C         140.1078  141.9427  164.3113 C.ar    1  UNL1        0.0203
     10 C         139.4013  141.9980  162.9893 C.ar    1  UNL1        0.0828
     11 N         139.8897  142.9252  161.9161 N.pl3   1  UNL1       -0.2957
     12 C         140.8050  142.4145  160.8430 C.3     1  UNL1        0.1128
     13 C         141.2934  143.3417  159.7698 C.3     1  UNL1        0.1149
     14 N         140.8665  144.7797  159.7697 N.am    1  UNL1       -0.2746
     15 C         141.3549  145.7069  158.6966 C.3     1  UNL1        0.1150
     16 C         139.9513  145.2905  160.8428 C.2     1  UNL1        0.2460
     17 O         139.5245  146.7284  160.8427 O.2     1  UNL1       -0.2730
     18 C         139.4629  144.3632  161.9160 C.3     1  UNL1        0.1774
     19 C         140.5441  139.9778  169.1018 C.2     1  UNL1        0.2455
     20 N         139.7518  139.8916  170.3725 N.am    1  UNL1       -0.3252
     21 O         142.0430  140.0088  169.1530 O.2     1  UNL1       -0.2703
     22 H         138.7681  139.8713  170.3388 H       1  UNL1        0.1453
     23 H         140.2155  139.8554  171.2402 H       1  UNL1        0.1453
     24 N         141.5208  141.8322  166.9554 N.pl3   1  UNL1       -0.3106
     25 H         141.5231  142.4592  167.7145 H       1  UNL1        0.1523
     26 C         142.7122  141.7491  166.0477 C.ar    1  UNL1        0.0763
     27 C         143.3826  143.0042  165.5733 C.ar    1  UNL1        0.0192
     28 C         144.5739  142.9211  164.6656 C.ar    1  UNL1        0.0311
     29 C         145.0948  141.5828  164.2324 C.ar    1  UNL1        0.1425
     30 F         146.2861  141.4997  163.3248 F       1  UNL1       -0.2041
     31 C         144.4244  140.3276  164.7069 C.ar    1  UNL1        0.0605
     32 C         143.2330  140.4108  165.6146 C.ar    1  UNL1        0.1556
     33 F         142.5626  139.1557  166.0890 F       1  UNL1       -0.2028
     34 O         137.5000  141.1812  161.4183 O.3     1  UNL1       -0.4742
     35 C         138.9040  139.2344  160.4240 C.3     1  UNL1        0.0512
     36 C         137.6466  140.0521  160.4419 C.3     1  UNL1        0.2056
@<TRIPOS>BOND
     1    35    36    1
     2    36    34    1
     3    34     1    1
     4     1     2   ar
     5     2     3   ar
     6     3     4   ar
     7     4     5   ar
     8     5     6   ar
     9     6    19    1
    10    19    20   am
    11    19    21    2
    12     6     7   ar
    13     7    24    1
    14    24    26    1
    15    26    27   ar
    16    27    28   ar
    17    28    29   ar
    18    29    30    1
    19    29    31   ar
    20    31    32   ar
    21    32    33    1
    22     7     8   ar
    23     8     9   ar
    24     9    10   ar
    25    10    11    1
    26    11    12    1
    27    12    13    1
    28    13    14    1
    29    14    15    1
    30    14    16   am
    31    16    17    2
    32    16    18    1
    33    10     1   ar
    34    18    11    1
    35     8     3   ar
    36    32    26   ar
    37    20    22    1
    38    20    23    1
    39    24    25    1
@<TRIPOS>MOLECULE
*****
 36 39 0 0 0
SMALL
GASTEIGER

@<TRIPOS>ATOM
      1 C         143.2332  143.3409  164.4494 C.ar    1  UNL1        0.1532
      2 C         143.7384  143.0186  165.8244 C.ar    1  UNL1        0.0573
      3 C         142.8708  142.2580  166.7830 C.ar    1  UNL1        0.0856
      4 N         143.3761  141.9357  168.1581 N.ar    1  UNL1       -0.2435
      5 C         142.5086  141.1751  169.1167 C.ar    1  UNL1        0.1045
      6 C         141.1358  140.7368  168.7002 C.ar    1  UNL1        0.0856
      7 C         140.6306  141.0591  167.3251 C.ar    1  UNL1        0.0557
      8 C         141.4981  141.8197  166.3665 C.ar    1  UNL1        0.0327
      9 C         140.9929  142.1420  164.9915 C.ar    1  UNL1        0.0203
     10 C         141.8605  142.9026  164.0329 C.ar    1  UNL1        0.0828
     11 N         141.3552  143.2250  162.6578 N.pl3   1  UNL1       -0.2957
     12 C         141.5310  142.2365  161.5434 C.3     1  UNL1        0.1128
     13 C         141.0258  142.5587  160.1683 C.3     1  UNL1        0.1149
     14 N         140.3447  143.8695  159.9076 N.am    1  UNL1       -0.2746
     15 C         139.8395  144.1918  158.5325 C.3     1  UNL1        0.1150
     16 C         140.1689  144.8581  161.0220 C.2     1  UNL1        0.2460
     17 O         139.4878  146.1688  160.7613 O.2     1  UNL1       -0.2730
     18 C         140.6741  144.5357  162.3971 C.3     1  UNL1        0.1774
     19 C         140.2683  139.9762  169.6588 C.2     1  UNL1        0.2455
     20 N         140.8898  139.2238  170.7978 N.am    1  UNL1       -0.3252
     21 O         138.7791  139.9680  169.4782 O.2     1  UNL1       -0.2703
     22 H         141.8671  139.2291  170.9163 H       1  UNL1        0.1453
     23 H         140.3204  138.7246  171.4270 H       1  UNL1        0.1453
     24 N         139.2579  140.6208  166.9086 N.pl3   1  UNL1       -0.3106
     25 H         138.4807  140.8322  167.4749 H       1  UNL1        0.1523
     26 C         139.0692  139.8605  165.6294 C.ar    1  UNL1        0.0763
     27 C         139.7178  138.5197  165.4512 C.ar    1  UNL1        0.0192
     28 C         139.5291  137.7594  164.1721 C.ar    1  UNL1        0.0311
     29 C         138.6919  138.3398  163.0710 C.ar    1  UNL1        0.1425
     30 F         138.5032  137.5794  161.7919 F       1  UNL1       -0.2041
     31 C         138.0433  139.6805  163.2492 C.ar    1  UNL1        0.0605
     32 C         138.2320  140.4409  164.5285 C.ar    1  UNL1        0.1556
     33 F         137.5834  141.7816  164.7066 F       1  UNL1       -0.2028
     34 O         144.1007  144.1015  163.4908 O.3     1  UNL1       -0.4742
     35 C         145.2158  141.9487  162.5570 C.3     1  UNL1        0.0512
     36 C         144.8017  143.3794  162.3786 C.3     1  UNL1        0.2056
@<TRIPOS>BOND
     1    35    36    1
     2    36    34    1
     3    34     1    1
     4     1     2   ar
     5     2     3   ar
     6     3     4   ar
     7     4     5   ar
     8     5     6   ar
     9     6    19    1
    10    19    20   am
    11    19    21    2
    12     6     7   ar
    13     7    24    1
    14    24    26    1
    15    26    27   ar
    16    27    28   ar
    17    28    29   ar
    18    29    30    1
    19    29    31   ar
    20    31    32   ar
    21    32    33    1
    22     7     8   ar
    23     8     9   ar
    24     9    10   ar
    25    10    11    1
    26    11    12    1
    27    12    13    1
    28    13    14    1
    29    14    15    1
    30    14    16   am
    31    16    17    2
    32    16    18    1
    33    10     1   ar
    34    18    11    1
    35     8     3   ar
    36    32    26   ar
    37    20    22    1
    38    20    23    1
    39    24    25    1
@<TRIPOS>MOLECULE
*****
 36 39 0 0 0
SMALL
GASTEIGER

@<TRIPOS>ATOM
      1 C         143.8015  142.2321  164.5653 C.ar    1  UNL1        0.1532
      2 C         143.7040  142.6402  166.0054 C.ar    1  UNL1        0.0573
      3 C         142.6955  141.9871  166.9034 C.ar    1  UNL1        0.0856
      4 N         142.5981  142.3953  168.3436 N.ar    1  UNL1       -0.2435
      5 C         141.5897  141.7422  169.2416 C.ar    1  UNL1        0.1045
      6 C         140.6787  140.6809  168.6995 C.ar    1  UNL1        0.0856
      7 C         140.7762  140.2727  167.2595 C.ar    1  UNL1        0.0557
      8 C         141.7846  140.9258  166.3614 C.ar    1  UNL1        0.0327
      9 C         141.8821  140.5177  164.9213 C.ar    1  UNL1        0.0203
     10 C         142.8905  141.1708  164.0233 C.ar    1  UNL1        0.0828
     11 N         142.9880  140.7626  162.5831 N.pl3   1  UNL1       -0.2957
     12 C         143.9647  139.7023  162.1686 C.3     1  UNL1        0.1128
     13 C         144.0622  139.2941  160.7285 C.3     1  UNL1        0.1149
     14 N         143.1829  139.9462  159.7029 N.am    1  UNL1       -0.2746
     15 C         143.2804  139.5380  158.2629 C.3     1  UNL1        0.1150
     16 C         142.2062  141.0065  160.1175 C.2     1  UNL1        0.2460
     17 O         141.3269  141.6585  159.0920 O.2     1  UNL1       -0.2730
     18 C         142.1087  141.4147  161.5576 C.3     1  UNL1        0.1774
     19 C         139.6703  140.0278  169.5976 C.2     1  UNL1        0.2455
     20 N         139.9996  139.7799  171.0398 N.am    1  UNL1       -0.3252
     21 O         138.3325  139.6225  169.0533 O.2     1  UNL1       -0.2703
     22 H         140.8776  140.0459  171.3970 H       1  UNL1        0.1453
     23 H         139.3377  139.3512  171.6292 H       1  UNL1        0.1453
     24 N         139.8652  139.2115  166.7175 N.pl3   1  UNL1       -0.3106
     25 H         139.7046  138.3894  167.2348 H       1  UNL1        0.1523
     26 C         139.1990  139.4027  165.3872 C.ar    1  UNL1        0.0763
     27 C         138.4084  140.6483  165.1165 C.ar    1  UNL1        0.0192
     28 C         137.7421  140.8396  163.7863 C.ar    1  UNL1        0.0311
     29 C         137.8665  139.7851  162.7266 C.ar    1  UNL1        0.1425
     30 F         137.2002  139.9764  161.3964 F       1  UNL1       -0.2041
     31 C         138.6571  138.5395  162.9973 C.ar    1  UNL1        0.0605
     32 C         139.3234  138.3483  164.3276 C.ar    1  UNL1        0.1556
     33 F         140.1140  137.1026  164.5983 F       1  UNL1       -0.2028
     34 O         144.8099  142.8852  163.6673 O.3     1  UNL1       -0.4742
     35 C         143.1708  144.8312  163.1414 C.3     1  UNL1        0.0512
     36 C         144.4096  144.0516  162.8133 C.3     1  UNL1        0.2056
@<TRIPOS>BOND
     1    35    36    1
     2    36    34    1
     3    34     1    1
     4     1     2   ar
     5     2     3   ar
     6     3     4   ar
     7     4     5   ar
     8     5     6   ar
     9     6    19    1
    10    19    20   am
    11    19    21    2
    12     6     7   ar
    13     7    24    1
    14    24    26    1
    15    26    27   ar
    16    27    28   ar
    17    28    29   ar
    18    29    30    1
    19    29    31   ar
    20    31    32   ar
    21    32    33    1
    22     7     8   ar
    23     8     9   ar
    24     9    10   ar
    25    10    11    1
    26    11    12    1
    27    12    13    1
    28    13    14    1
    29    14    15    1
    30    14    16   am
    31    16    17    2
    32    16    18    1
    33    10     1   ar
    34    18    11    1
    35     8     3   ar
    36    32    26   ar
    37    20    22    1
    38    20    23    1
    39    24    25    1
@<TRIPOS>MOLECULE
*****
 36 39 0 0 0
SMALL
GASTEIGER

@<TRIPOS>ATOM
      1 C         144.1028  139.8555  162.8153 C.ar    1  UNL1        0.1532
      2 C         144.3233  139.5145  161.3714 C.ar    1  UNL1        0.0573
      3 C         143.1497  139.2493  160.4757 C.ar    1  UNL1        0.0856
      4 N         143.3702  138.9083  159.0317 N.ar    1  UNL1       -0.2435
      5 C         142.1966  138.6431  158.1360 C.ar    1  UNL1        0.1045
      6 C         140.8024  138.7190  158.6843 C.ar    1  UNL1        0.0856
      7 C         140.5819  139.0600  160.1283 C.ar    1  UNL1        0.0557
      8 C         141.7556  139.3252  161.0240 C.ar    1  UNL1        0.0327
      9 C         141.5351  139.6662  162.4679 C.ar    1  UNL1        0.0203
     10 C         142.7087  139.9314  163.3636 C.ar    1  UNL1        0.0828
     11 N         142.4882  140.2724  164.8076 N.pl3   1  UNL1       -0.2957
     12 C         141.8420  141.5736  165.1807 C.3     1  UNL1        0.1128
     13 C         141.6214  141.9147  166.6246 C.3     1  UNL1        0.1149
     14 N         142.0471  140.9544  167.6956 N.am    1  UNL1       -0.2746
     15 C         141.8265  141.2955  169.1395 C.3     1  UNL1        0.1150
     16 C         142.6933  139.6532  167.3225 C.2     1  UNL1        0.2460
     17 O         143.1190  138.6930  168.3934 O.2     1  UNL1       -0.2730
     18 C         142.9138  139.3122  165.8785 C.3     1  UNL1        0.1774
     19 C         139.6288  138.4538  157.7886 C.2     1  UNL1        0.2455
     20 N         139.5648  137.1842  156.9924 N.am    1  UNL1       -0.3252
     21 O         138.5192  139.4582  157.6892 O.2     1  UNL1       -0.2703
     22 H         140.2930  136.5249  157.0577 H       1  UNL1        0.1453
     23 H         138.7945  137.0101  156.4046 H       1  UNL1        0.1453
     24 N         139.1878  139.1358  160.6765 N.pl3   1  UNL1       -0.3106
     25 H         138.5957  138.3509  160.6260 H       1  UNL1        0.1523
     26 C         138.6959  140.4075  161.3018 C.ar    1  UNL1        0.0763
     27 C         138.8428  141.7087  160.5701 C.ar    1  UNL1        0.0192
     28 C         138.3509  142.9803  161.1953 C.ar    1  UNL1        0.0311
     29 C         137.7120  142.9508  162.5521 C.ar    1  UNL1        0.1425
     30 F         137.2201  144.2225  163.1773 F       1  UNL1       -0.2041
     31 C         137.5651  141.6496  163.2838 C.ar    1  UNL1        0.0605
     32 C         138.0570  140.3779  162.6585 C.ar    1  UNL1        0.1556
     33 F         137.9101  139.0767  163.3902 F       1  UNL1       -0.2028
     34 O         145.2765  140.1207  163.7110 O.3     1  UNL1       -0.4742
     35 C         145.0406  142.6750  163.2987 C.3     1  UNL1        0.0512
     36 C         145.8143  141.5141  163.8498 C.3     1  UNL1        0.2056
@<TRIPOS>BOND
     1    35    36    1
     2    36    34    1
     3    34     1    1
     4     1     2   ar
     5     2     3   ar
     6     3     4   ar
     7     4     5   ar
     8     5     6   ar
     9     6    19    1
    10    19    20   am
    11    19    21    2
    12     6     7   ar
    13     7    24    1
    14    24    26    1
    15    26    27   ar
    16    27    28   ar
    17    28    29   ar
    18    29    30    1
    19    29    31   ar
    20    31    32   ar
    21    32    33    1
    22     7     8   ar
    23     8     9   ar
    24     9    10   ar
    25    10    11    1
    26    11    12    1
    27    12    13    1
    28    13    14    1
    29    14    15    1
    30    14    16   am
    31    16    17    2
    32    16    18    1
    33    10     1   ar
    34    18    11    1
    35     8     3   ar
    36    32    26   ar
    37    20    22    1
    38    20    23    1
    39    24    25    1
@<TRIPOS>MOLECULE
*****
 36 39 0 0 0
SMALL
GASTEIGER

@<TRIPOS>ATOM
      1 C         139.1262  143.3063  164.0422 C.ar    1  UNL1        0.1532
      2 C         139.4773  143.6396  165.4619 C.ar    1  UNL1        0.0573
      3 C         140.1467  142.6150  166.3293 C.ar    1  UNL1        0.0856
      4 N         140.4978  142.9483  167.7491 N.ar    1  UNL1       -0.2435
      5 C         141.1671  141.9237  168.6164 C.ar    1  UNL1        0.1045
      6 C         141.4854  140.5659  168.0639 C.ar    1  UNL1        0.0856
      7 C         141.1342  140.2327  166.6442 C.ar    1  UNL1        0.0557
      8 C         140.4649  141.2572  165.7769 C.ar    1  UNL1        0.0327
      9 C         140.1137  140.9240  164.3572 C.ar    1  UNL1        0.0203
     10 C         139.4444  141.9486  163.4899 C.ar    1  UNL1        0.0828
     11 N         139.0932  141.6153  162.0701 N.pl3   1  UNL1       -0.2957
     12 C         137.9778  140.6557  161.7788 C.3     1  UNL1        0.1128
     13 C         137.6266  140.3224  160.3591 C.3     1  UNL1        0.1149
     14 N         138.3910  140.9487  159.2306 N.am    1  UNL1       -0.2746
     15 C         138.0398  140.6154  157.8109 C.3     1  UNL1        0.1150
     16 C         139.5065  141.9083  159.5218 C.2     1  UNL1        0.2460
     17 O         140.2708  142.5347  158.3934 O.2     1  UNL1       -0.2730
     18 C         139.8576  142.2416  160.9416 C.3     1  UNL1        0.1774
     19 C         142.1547  139.5414  168.9313 C.2     1  UNL1        0.2455
     20 N         141.7244  139.3699  170.3579 N.am    1  UNL1       -0.3252
     21 O         143.2545  138.6883  168.3719 O.2     1  UNL1       -0.2703
     22 H         141.0026  139.9298  170.7250 H       1  UNL1        0.1453
     23 H         142.1637  138.6975  170.9272 H       1  UNL1        0.1453
     24 N         141.4525  138.8749  166.0918 N.pl3   1  UNL1       -0.3106
     25 H         141.1558  138.0671  166.5700 H       1  UNL1        0.1523
     26 C         142.2227  138.7480  164.8109 C.ar    1  UNL1        0.0763
     27 C         143.5402  139.4481  164.6555 C.ar    1  UNL1        0.0192
     28 C         144.3104  139.3211  163.3746 C.ar    1  UNL1        0.0311
     29 C         143.7631  138.4941  162.2491 C.ar    1  UNL1        0.1425
     30 F         144.5333  138.3672  160.9683 F       1  UNL1       -0.2041
     31 C         142.4457  137.7941  162.4046 C.ar    1  UNL1        0.0605
     32 C         141.6754  137.9210  163.6855 C.ar    1  UNL1        0.1556
     33 F         140.3579  137.2210  163.8409 F       1  UNL1       -0.2028
     34 O         138.4568  144.3309  163.1749 O.3     1  UNL1       -0.4742
     35 C         140.7275  145.4257  162.5461 C.3     1  UNL1        0.0512
     36 C         139.2349  145.5095  162.6695 C.3     1  UNL1        0.2056
@<TRIPOS>BOND
     1    35    36    1
     2    36    34    1
     3    34     1    1
     4     1     2   ar
     5     2     3   ar
     6     3     4   ar
     7     4     5   ar
     8     5     6   ar
     9     6    19    1
    10    19    20   am
    11    19    21    2
    12     6     7   ar
    13     7    24    1
    14    24    26    1
    15    26    27   ar
    16    27    28   ar
    17    28    29   ar
    18    29    30    1
    19    29    31   ar
    20    31    32   ar
    21    32    33    1
    22     7     8   ar
    23     8     9   ar
    24     9    10   ar
    25    10    11    1
    26    11    12    1
    27    12    13    1
    28    13    14    1
    29    14    15    1
    30    14    16   am
    31    16    17    2
    32    16    18    1
    33    10     1   ar
    34    18    11    1
    35     8     3   ar
    36    32    26   ar
    37    20    22    1
    38    20    23    1
    39    24    25    1
@<TRIPOS>MOLECULE
*****
 36 39 0 0 0
SMALL
GASTEIGER

@<TRIPOS>ATOM
      1 C         138.7335  140.5809  162.2630 C.ar    1  UNL1        0.1532
      2 C         138.3367  140.9545  160.8656 C.ar    1  UNL1        0.0573
      3 C         138.9793  142.1310  160.1926 C.ar    1  UNL1        0.0856
      4 N         138.5824  142.5045  158.7950 N.ar    1  UNL1       -0.2435
      5 C         139.2250  143.6811  158.1220 C.ar    1  UNL1        0.1045
      6 C         140.2644  144.4840  158.8466 C.ar    1  UNL1        0.0856
      7 C         140.6612  144.1104  160.2441 C.ar    1  UNL1        0.0557
      8 C         140.0187  142.9339  160.9170 C.ar    1  UNL1        0.0327
      9 C         140.4155  142.5604  162.3145 C.ar    1  UNL1        0.0203
     10 C         139.7729  141.3838  162.9875 C.ar    1  UNL1        0.0828
     11 N         140.1698  141.0103  164.3850 N.pl3   1  UNL1       -0.2957
     12 C         139.2195  141.2431  165.5221 C.3     1  UNL1        0.1128
     13 C         139.6163  140.8696  166.9195 C.3     1  UNL1        0.1149
     14 N         140.9634  140.2632  167.1800 N.am    1  UNL1       -0.2746
     15 C         141.3602  139.8897  168.5775 C.3     1  UNL1        0.1150
     16 C         141.9137  140.0304  166.0430 C.2     1  UNL1        0.2460
     17 O         143.2607  139.4241  166.3034 O.2     1  UNL1       -0.2730
     18 C         141.5168  140.4040  164.6454 C.3     1  UNL1        0.1774
     19 C         140.9070  145.6605  158.1736 C.2     1  UNL1        0.2455
     20 N         140.0672  146.6321  157.3987 N.am    1  UNL1       -0.3252
     21 O         142.3895  145.8654  158.2756 O.2     1  UNL1       -0.2703
     22 H         139.0942  146.4977  157.3317 H       1  UNL1        0.1453
     23 H         140.4889  147.4043  156.9570 H       1  UNL1        0.1453
     24 N         141.7006  144.9134  160.9685 N.pl3   1  UNL1       -0.3106
     25 H         141.6815  145.8967  160.9253 H       1  UNL1        0.1523
     26 C         142.7692  144.2181  161.7589 C.ar    1  UNL1        0.0763
     27 C         143.6255  143.1738  161.1060 C.ar    1  UNL1        0.0192
     28 C         144.6941  142.4785  161.8963 C.ar    1  UNL1        0.0311
     29 C         144.9064  142.8274  163.3396 C.ar    1  UNL1        0.1425
     30 F         145.9750  142.1321  164.1300 F       1  UNL1       -0.2041
     31 C         144.0502  143.8717  163.9926 C.ar    1  UNL1        0.0605
     32 C         142.9816  144.5670  163.2022 C.ar    1  UNL1        0.1556
     33 F         142.1253  145.6113  163.8552 F       1  UNL1       -0.2028
     34 O         138.0909  139.4044  162.9360 O.3     1  UNL1       -0.4742
     35 C         139.1620  137.5951  164.4622 C.3     1  UNL1        0.0512
     36 C         138.8524  138.1216  163.0921 C.3     1  UNL1        0.2056
@<TRIPOS>BOND
     1    35    36    1
     2    36    34    1
     3    34     1    1
     4     1     2   ar
     5     2     3   ar
     6     3     4   ar
     7     4     5   ar
     8     5     6   ar
     9     6    19    1
    10    19    20   am
    11    19    21    2
    12     6     7   ar
    13     7    24    1
    14    24    26    1
    15    26    27   ar
    16    27    28   ar
    17    28    29   ar
    18    29    30    1
    19    29    31   ar
    20    31    32   ar
    21    32    33    1
    22     7     8   ar
    23     8     9   ar
    24     9    10   ar
    25    10    11    1
    26    11    12    1
    27    12    13    1
    28    13    14    1
    29    14    15    1
    30    14    16   am
    31    16    17    2
    32    16    18    1
    33    10     1   ar
    34    18    11    1
    35     8     3   ar
    36    32    26   ar
    37    20    22    1
    38    20    23    1
    39    24    25    1
@<TRIPOS>MOLECULE
*****
 36 39 0 0 0
SMALL
GASTEIGER

@<TRIPOS>ATOM
      1 C         142.0934  139.1613  162.3589 C.ar    1  UNL1        0.1532
      2 C         142.1274  139.3523  160.8715 C.ar    1  UNL1        0.0573
      3 C         141.9808  140.7265  160.2883 C.ar    1  UNL1        0.0856
      4 N         142.0148  140.9175  158.8008 N.ar    1  UNL1       -0.2435
      5 C         141.8682  142.2917  158.2176 C.ar    1  UNL1        0.1045
      6 C         141.6877  143.4748  159.1219 C.ar    1  UNL1        0.0856
      7 C         141.6537  143.2838  160.6092 C.ar    1  UNL1        0.0557
      8 C         141.8003  141.9096  161.1924 C.ar    1  UNL1        0.0327
      9 C         141.7663  141.7186  162.6798 C.ar    1  UNL1        0.0203
     10 C         141.9129  140.3444  163.2630 C.ar    1  UNL1        0.0828
     11 N         141.8790  140.1534  164.7505 N.pl3   1  UNL1       -0.2957
     12 C         143.1346  139.7972  165.4897 C.3     1  UNL1        0.1128
     13 C         143.1007  139.6062  166.9771 C.3     1  UNL1        0.1149
     14 N         141.8111  139.7714  167.7253 N.am    1  UNL1       -0.2746
     15 C         141.7772  139.5804  169.2127 C.3     1  UNL1        0.1150
     16 C         140.5555  140.1277  166.9861 C.2     1  UNL1        0.2460
     17 O         139.2659  140.2929  167.7342 O.2     1  UNL1       -0.2730
     18 C         140.5894  140.3186  165.4986 C.3     1  UNL1        0.1774
     19 C         141.5411  144.8490  158.5386 C.2     1  UNL1        0.2455
     20 N         142.6296  145.4186  157.6781 N.am    1  UNL1       -0.3252
     21 O         140.3059  145.6537  158.8160 O.2     1  UNL1       -0.2703
     22 H         143.4403  144.8905  157.4960 H       1  UNL1        0.1453
     23 H         142.5334  146.3205  157.2953 H       1  UNL1        0.1453
     24 N         141.4732  144.4670  161.5134 N.pl3   1  UNL1       -0.3106
     25 H         142.0870  145.2340  161.4488 H       1  UNL1        0.1523
     26 C         140.3574  144.4815  162.5159 C.ar    1  UNL1        0.0763
     27 C         138.9589  144.1507  162.0863 C.ar    1  UNL1        0.0192
     28 C         137.8431  144.1652  163.0887 C.ar    1  UNL1        0.0311
     29 C         138.1260  144.5105  164.5208 C.ar    1  UNL1        0.1425
     30 F         137.0102  144.5250  165.5232 F       1  UNL1       -0.2041
     31 C         139.5245  144.8413  164.9504 C.ar    1  UNL1        0.0605
     32 C         140.6403  144.8268  163.9479 C.ar    1  UNL1        0.1556
     33 F         142.0389  145.1576  164.3775 F       1  UNL1       -0.2028
     34 O         142.2400  137.7871  162.9421 O.3     1  UNL1       -0.4742
     35 C         139.6571  137.5390  163.0715 C.3     1  UNL1        0.0512
     36 C         141.0289  137.0416  163.4189 C.3     1  UNL1        0.2056
@<TRIPOS>BOND
     1    35    36    1
     2    36    34    1
     3    34     1    1
     4     1     2   ar
     5     2     3   ar
     6     3     4   ar
     7     4     5   ar
     8     5     6   ar
     9     6    19    1
    10    19    20   am
    11    19    21    2
    12     6     7   ar
    13     7    24    1
    14    24    26    1
    15    26    27   ar
    16    27    28   ar
    17    28    29   ar
    18    29    30    1
    19    29    31   ar
    20    31    32   ar
    21    32    33    1
    22     7     8   ar
    23     8     9   ar
    24     9    10   ar
    25    10    11    1
    26    11    12    1
    27    12    13    1
    28    13    14    1
    29    14    15    1
    30    14    16   am
    31    16    17    2
    32    16    18    1
    33    10     1   ar
    34    18    11    1
    35     8     3   ar
    36    32    26   ar
    37    20    22    1
    38    20    23    1
    39    24    25    1
