@<TRIPOS>MOLECULE
*****
 37 39 0 0 0
SMALL
GASTEIGER

@<TRIPOS>ATOM
      1 C         140.3311  138.2255  162.5678 C.3     1  UNL1        0.2478
      2 C         141.7484  138.6368  162.8360 C.3     1  UNL1        0.1428
      3 N         142.0484  138.3533  164.2781 N.am    1  UNL1       -0.2700
      4 C         143.3516  138.6110  164.9747 C.2     1  UNL1        0.2303
      5 O         144.5020  139.2055  164.2177 O.2     1  UNL1       -0.2745
      6 C         140.8164  137.7667  164.9012 C.3     1  UNL1        0.1640
      7 C         139.7550  137.6878  163.8442 C.3     1  UNL1        0.3192
      8 F         138.9207  137.1082  164.9478 F       1  UNL1       -0.1985
      9 F         138.5192  137.4877  163.0179 F       1  UNL1       -0.1985
     10 O         139.6154  138.3330  161.2540 O.3     1  UNL1       -0.4689
     11 C         138.6326  142.1760  161.1267 C.ar    1  UNL1        0.0756
     12 C         138.4496  142.3730  159.6510 C.ar    1  UNL1        0.1050
     13 N         138.6551  141.2234  158.7096 N.ar    1  UNL1       -0.2263
     14 C         139.0437  139.8767  159.2439 C.ar    1  UNL1        0.1597
     15 N         139.2493  138.7271  158.3026 N.pl3   1  UNL1       -0.3402
     16 C         139.2268  139.6797  160.7196 C.ar    1  UNL1        0.1698
     17 C         139.0212  140.8293  161.6610 C.ar    1  UNL1        0.0459
     18 H         139.1291  138.8565  157.3340 H       1  UNL1        0.1438
     19 H         139.5043  137.8433  158.6533 H       1  UNL1        0.1438
     20 N         137.9312  143.0747  163.4612 N.am    1  UNL1       -0.3008
     21 C         138.4271  143.3256  162.0680 C.2     1  UNL1        0.2475
     22 O         138.7174  144.7261  161.6162 O.2     1  UNL1       -0.2701
     23 H         137.7406  142.1554  163.7578 H       1  UNL1        0.1497
     24 C         138.8600  144.7049  165.2584 C.3     1  UNL1        0.0230
     25 C         137.7256  144.2243  164.4026 C.3     1  UNL1        0.0898
     26 C         143.5043  138.2742  166.4284 C.3     1  UNL1        0.1116
     27 C         142.9655  139.2045  167.4746 C.ar    1  UNL1       -0.0129
     28 C         142.5622  140.6001  167.1012 C.ar    1  UNL1       -0.0007
     29 C         142.0235  141.5303  168.1475 C.ar    1  UNL1        0.0369
     30 C         141.8881  141.0648  169.5669 C.ar    1  UNL1        0.1468
     31 C         142.2914  139.6691  169.9403 C.ar    1  UNL1        0.0369
     32 C         142.8301  138.7389  168.8941 C.ar    1  UNL1       -0.0007
     33 O         141.3493  141.9949  170.6131 O.3     1  UNL1       -0.4045
     34 C         140.7936  143.3302  170.2152 C.3     1  UNL1        0.5753
     35 F         140.2379  144.6654  169.8172 F       1  UNL1       -0.1328
     36 F         139.4141  142.7428  170.1709 F       1  UNL1       -0.1328
     37 F         142.1731  143.9175  170.2595 F       1  UNL1       -0.1328
@<TRIPOS>BOND
     1    24    25    1
     2    25    20    1
     3    20    21   am
     4    21    22    2
     5    21    11    1
     6    11    12   ar
     7    12    13   ar
     8    13    14   ar
     9    14    15    1
    10    14    16   ar
    11    16    10    1
    12     1    10    1
    13     1     2    1
    14     2     3    1
    15     3     4   am
    16     4     5    2
    17     4    26    1
    18    26    27    1
    19    27    28   ar
    20    28    29   ar
    21    29    30   ar
    22    30    33    1
    23    33    34    1
    24    34    35    1
    25    34    36    1
    26    34    37    1
    27    30    31   ar
    28    31    32   ar
    29     3     6    1
    30     6     7    1
    31     7     8    1
    32     7     9    1
    33    16    17   ar
    34    17    11   ar
    35     7     1    1
    36    32    27   ar
    37    20    23    1
    38    15    18    1
    39    15    19    1
@<TRIPOS>MOLECULE
*****
 37 39 0 0 0
SMALL
GASTEIGER

@<TRIPOS>ATOM
      1 C         143.9215  141.1689  161.5861 C.3     1  UNL1        0.2478
      2 C         142.8055  140.2236  161.9193 C.3     1  UNL1        0.1428
      3 N         143.0341  139.7084  163.3094 N.am    1  UNL1       -0.2700
      4 C         142.1590  138.7368  164.0445 C.2     1  UNL1        0.2303
      5 O         140.9263  138.1913  163.3867 O.2     1  UNL1       -0.2745
      6 C         144.2913  140.3353  163.8353 C.3     1  UNL1        0.1640
      7 C         144.8397  141.2379  162.7702 C.3     1  UNL1        0.3192
      8 F         145.9198  141.5074  163.7756 F       1  UNL1       -0.1985
      9 F         145.6140  142.1969  161.9153 F       1  UNL1       -0.1985
     10 O         144.0897  141.9144  160.2953 O.3     1  UNL1       -0.4689
     11 C         141.2125  144.6300  160.6076 C.ar    1  UNL1        0.0756
     12 C         141.2804  145.2718  159.2536 C.ar    1  UNL1        0.1050
     13 N         142.2847  144.7945  158.2468 N.ar    1  UNL1       -0.2263
     14 C         143.2211  143.6754  158.5941 C.ar    1  UNL1        0.1597
     15 N         144.2254  143.1981  157.5873 N.pl3   1  UNL1       -0.3402
     16 C         143.1532  143.0336  159.9481 C.ar    1  UNL1        0.1698
     17 C         142.1489  143.5108  160.9548 C.ar    1  UNL1        0.0459
     18 H         144.2699  143.6194  156.6986 H       1  UNL1        0.1438
     19 H         144.8400  142.4636  157.8152 H       1  UNL1        0.1438
     20 N         139.4392  144.1148  162.4352 N.am    1  UNL1       -0.3008
     21 C         140.2082  145.1072  161.6144 C.2     1  UNL1        0.2475
     22 O         139.9729  146.5769  161.8004 O.2     1  UNL1       -0.2701
     23 H         139.5936  143.1502  162.3131 H       1  UNL1        0.1497
     24 C         138.8348  144.7621  164.8777 C.3     1  UNL1        0.0230
     25 C         138.4349  144.5921  163.4420 C.3     1  UNL1        0.0898
     26 C         142.5167  138.3108  165.4376 C.3     1  UNL1        0.1116
     27 C         142.0685  139.1306  166.6111 C.ar    1  UNL1       -0.0129
     28 C         142.9142  139.1944  167.8482 C.ar    1  UNL1       -0.0007
     29 C         142.4660  140.0142  169.0216 C.ar    1  UNL1        0.0369
     30 C         141.1720  140.7702  168.9579 C.ar    1  UNL1        0.1468
     31 C         140.3262  140.7065  167.7207 C.ar    1  UNL1        0.0369
     32 C         140.7745  139.8866  166.5473 C.ar    1  UNL1       -0.0007
     33 O         140.7238  141.5900  170.1314 O.3     1  UNL1       -0.4045
     34 C         140.5589  143.0742  169.9902 C.3     1  UNL1        0.5753
     35 F         140.3940  144.5584  169.8490 F       1  UNL1       -0.1328
     36 F         139.2404  142.9954  170.7010 F       1  UNL1       -0.1328
     37 F         141.8775  143.1531  169.2794 F       1  UNL1       -0.1328
@<TRIPOS>BOND
     1    24    25    1
     2    25    20    1
     3    20    21   am
     4    21    22    2
     5    21    11    1
     6    11    12   ar
     7    12    13   ar
     8    13    14   ar
     9    14    15    1
    10    14    16   ar
    11    16    10    1
    12     1    10    1
    13     1     2    1
    14     2     3    1
    15     3     4   am
    16     4     5    2
    17     4    26    1
    18    26    27    1
    19    27    28   ar
    20    28    29   ar
    21    29    30   ar
    22    30    33    1
    23    33    34    1
    24    34    35    1
    25    34    36    1
    26    34    37    1
    27    30    31   ar
    28    31    32   ar
    29     3     6    1
    30     6     7    1
    31     7     8    1
    32     7     9    1
    33    16    17   ar
    34    17    11   ar
    35     7     1    1
    36    32    27   ar
    37    20    23    1
    38    15    18    1
    39    15    19    1
@<TRIPOS>MOLECULE
*****
 37 39 0 0 0
SMALL
GASTEIGER

@<TRIPOS>ATOM
      1 C         138.1916  142.6584  162.2134 C.3     1  UNL1        0.2478
      2 C         138.4779  141.1958  162.3835 C.3     1  UNL1        0.1428
      3 N         138.3142  140.8573  163.8356 N.am    1  UNL1       -0.2700
      4 C         138.5046  139.5032  164.4522 C.2     1  UNL1        0.2303
      5 O         138.8948  138.3365  163.5940 O.2     1  UNL1       -0.2745
      6 C         137.9268  142.1107  164.5630 C.3     1  UNL1        0.1640
      7 C         137.8510  143.2238  163.5603 C.3     1  UNL1        0.3192
      8 F         137.4782  144.0584  164.7497 F       1  UNL1       -0.1985
      9 F         137.6972  144.5114  162.8064 F       1  UNL1       -0.1985
     10 O         138.2377  143.4215  160.9229 O.3     1  UNL1       -0.4689
     11 C         141.4949  142.7185  158.7672 C.ar    1  UNL1        0.0756
     12 C         142.1674  144.0580  158.8247 C.ar    1  UNL1        0.1050
     13 N         141.5300  145.1854  159.5815 N.ar    1  UNL1       -0.2263
     14 C         140.2202  144.9732  160.2809 C.ar    1  UNL1        0.1597
     15 N         139.5828  146.1006  161.0377 N.pl3   1  UNL1       -0.3402
     16 C         139.5477  143.6337  160.2234 C.ar    1  UNL1        0.1698
     17 C         140.1850  142.5063  159.4666 C.ar    1  UNL1        0.0459
     18 H         140.0242  146.9798  161.0754 H       1  UNL1        0.1438
     19 H         138.7230  145.9614  161.4967 H       1  UNL1        0.1438
     20 N         142.3595  140.2699  158.6833 N.am    1  UNL1       -0.3008
     21 C         142.1323  141.5911  158.0104 C.2     1  UNL1        0.2475
     22 O         142.5424  141.7849  156.5807 O.2     1  UNL1       -0.2701
     23 H         142.0903  140.1427  159.6217 H       1  UNL1        0.1497
     24 C         142.5402  137.7323  158.1563 C.3     1  UNL1        0.0230
     25 C         142.9969  139.1426  157.9265 C.3     1  UNL1        0.0898
     26 C         138.3049  139.3158  165.9270 C.3     1  UNL1        0.1116
     27 C         139.4077  139.6614  166.8832 C.ar    1  UNL1       -0.0129
     28 C         140.8298  139.6944  166.4076 C.ar    1  UNL1       -0.0007
     29 C         141.9326  140.0401  167.3639 C.ar    1  UNL1        0.0369
     30 C         141.6131  140.3527  168.7958 C.ar    1  UNL1        0.1468
     31 C         140.1909  140.3197  169.2714 C.ar    1  UNL1        0.0369
     32 C         139.0881  139.9740  168.3151 C.ar    1  UNL1       -0.0007
     33 O         142.7158  140.6983  169.7521 O.3     1  UNL1       -0.4045
     34 C         142.9155  142.1208  170.1842 C.3     1  UNL1        0.5753
     35 F         143.1151  143.5433  170.6163 F       1  UNL1       -0.1328
     36 F         143.7083  142.3877  168.9391 F       1  UNL1       -0.1328
     37 F         142.1227  141.8539  171.4292 F       1  UNL1       -0.1328
@<TRIPOS>BOND
     1    24    25    1
     2    25    20    1
     3    20    21   am
     4    21    22    2
     5    21    11    1
     6    11    12   ar
     7    12    13   ar
     8    13    14   ar
     9    14    15    1
    10    14    16   ar
    11    16    10    1
    12     1    10    1
    13     1     2    1
    14     2     3    1
    15     3     4   am
    16     4     5    2
    17     4    26    1
    18    26    27    1
    19    27    28   ar
    20    28    29   ar
    21    29    30   ar
    22    30    33    1
    23    33    34    1
    24    34    35    1
    25    34    36    1
    26    34    37    1
    27    30    31   ar
    28    31    32   ar
    29     3     6    1
    30     6     7    1
    31     7     8    1
    32     7     9    1
    33    16    17   ar
    34    17    11   ar
    35     7     1    1
    36    32    27   ar
    37    20    23    1
    38    15    18    1
    39    15    19    1
@<TRIPOS>MOLECULE
*****
 37 39 0 0 0
SMALL
GASTEIGER

@<TRIPOS>ATOM
      1 C         137.9568  142.2335  162.0524 C.3     1  UNL1        0.2478
      2 C         138.2152  140.7885  162.3609 C.3     1  UNL1        0.1428
      3 N         138.1323  140.6100  163.8479 N.am    1  UNL1       -0.2700
      4 C         138.3251  139.3227  164.5935 C.2     1  UNL1        0.2303
      5 O         138.6317  138.0603  163.8436 O.2     1  UNL1       -0.2745
      6 C         137.8226  141.9447  164.4585 C.3     1  UNL1        0.1640
      7 C         137.7141  142.9480  163.3488 C.3     1  UNL1        0.3192
      8 F         137.4367  143.9146  164.4618 F       1  UNL1       -0.1985
      9 F         137.5477  144.1535  162.4718 F       1  UNL1       -0.1985
     10 O         137.9433  142.8549  160.6872 O.3     1  UNL1       -0.4689
     11 C         141.7908  142.9694  159.7207 C.ar    1  UNL1        0.0756
     12 C         141.7074  142.9539  158.2232 C.ar    1  UNL1        0.1050
     13 N         140.3694  142.9054  157.5469 N.ar    1  UNL1       -0.2263
     14 C         139.1147  142.8724  158.3682 C.ar    1  UNL1        0.1597
     15 N         137.7767  142.8239  157.6920 N.pl3   1  UNL1       -0.3402
     16 C         139.1981  142.8879  159.8658 C.ar    1  UNL1        0.1698
     17 C         140.5361  142.9364  160.5421 C.ar    1  UNL1        0.0459
     18 H         137.7220  142.8137  156.7091 H       1  UNL1        0.1438
     19 H         136.9532  142.8022  158.2311 H       1  UNL1        0.1438
     20 N         143.2211  143.3663  161.8530 N.am    1  UNL1       -0.3008
     21 C         143.1288  143.0180  160.3970 C.2     1  UNL1        0.2475
     22 O         144.3746  142.7181  159.6172 O.2     1  UNL1       -0.2701
     23 H         142.4034  143.5632  162.3648 H       1  UNL1        0.1497
     24 C         144.7059  142.9205  163.9379 C.3     1  UNL1        0.0230
     25 C         144.5591  143.4149  162.5293 C.3     1  UNL1        0.0898
     26 C         138.2115  139.2979  166.0889 C.3     1  UNL1        0.1116
     27 C         139.3959  139.6551  166.9373 C.ar    1  UNL1       -0.0129
     28 C         139.2134  139.9383  168.3989 C.ar    1  UNL1       -0.0007
     29 C         140.3979  140.2955  169.2471 C.ar    1  UNL1        0.0369
     30 C         141.7647  140.3694  168.6337 C.ar    1  UNL1        0.1468
     31 C         141.9472  140.0861  167.1721 C.ar    1  UNL1        0.0369
     32 C         140.7628  139.7290  166.3238 C.ar    1  UNL1       -0.0007
     33 O         142.9491  140.7266  169.4820 O.3     1  UNL1       -0.4045
     34 C         143.0922  142.1185  170.0225 C.3     1  UNL1        0.5753
     35 F         143.2352  143.5104  170.5629 F       1  UNL1       -0.1328
     36 F         142.3504  141.7135  171.2617 F       1  UNL1       -0.1328
     37 F         143.8340  142.5234  168.7832 F       1  UNL1       -0.1328
@<TRIPOS>BOND
     1    24    25    1
     2    25    20    1
     3    20    21   am
     4    21    22    2
     5    21    11    1
     6    11    12   ar
     7    12    13   ar
     8    13    14   ar
     9    14    15    1
    10    14    16   ar
    11    16    10    1
    12     1    10    1
    13     1     2    1
    14     2     3    1
    15     3     4   am
    16     4     5    2
    17     4    26    1
    18    26    27    1
    19    27    28   ar
    20    28    29   ar
    21    29    30   ar
    22    30    33    1
    23    33    34    1
    24    34    35    1
    25    34    36    1
    26    34    37    1
    27    30    31   ar
    28    31    32   ar
    29     3     6    1
    30     6     7    1
    31     7     8    1
    32     7     9    1
    33    16    17   ar
    34    17    11   ar
    35     7     1    1
    36    32    27   ar
    37    20    23    1
    38    15    18    1
    39    15    19    1
@<TRIPOS>MOLECULE
*****
 37 39 0 0 0
SMALL
GASTEIGER

@<TRIPOS>ATOM
      1 C         143.0413  140.6831  160.4423 C.3     1  UNL1        0.2478
      2 C         141.8979  139.7387  160.6678 C.3     1  UNL1        0.1428
      3 N         142.1173  139.0508  161.9826 N.am    1  UNL1       -0.2700
      4 C         141.2159  138.0240  162.6016 C.2     1  UNL1        0.2303
      5 O         139.9634  137.6008  161.8931 O.2     1  UNL1       -0.2745
      6 C         143.3962  139.5701  162.5698 C.3     1  UNL1        0.1640
      7 C         143.9673  140.5789  161.6178 C.3     1  UNL1        0.3192
      8 F         145.0604  140.6905  162.6389 F       1  UNL1       -0.1985
      9 F         144.7669  141.6110  160.8793 F       1  UNL1       -0.1985
     10 O         143.2262  141.5751  159.2506 O.3     1  UNL1       -0.4689
     11 C         140.9594  144.6713  160.2632 C.ar    1  UNL1        0.0756
     12 C         141.2609  145.6218  159.1427 C.ar    1  UNL1        0.1050
     13 N         142.2175  145.2234  158.0582 N.ar    1  UNL1       -0.2263
     14 C         142.8726  143.8745  158.0941 C.ar    1  UNL1        0.1597
     15 N         143.8292  143.4762  157.0096 N.pl3   1  UNL1       -0.3402
     16 C         142.5711  142.9240  159.2146 C.ar    1  UNL1        0.1698
     17 C         141.6145  143.3224  160.2992 C.ar    1  UNL1        0.0459
     18 H         144.0271  144.1000  156.2742 H       1  UNL1        0.1438
     19 H         144.2592  142.5908  157.0332 H       1  UNL1        0.1438
     20 N         139.0445  144.0619  161.9100 N.am    1  UNL1       -0.3008
     21 C         140.0028  145.0697  161.3477 C.2     1  UNL1        0.2475
     22 O         140.0044  146.4758  161.8700 O.2     1  UNL1       -0.2701
     23 H         139.0434  143.1390  161.5672 H       1  UNL1        0.1497
     24 C         137.7994  143.5163  164.1240 C.3     1  UNL1        0.0230
     25 C         138.0879  144.4603  162.9945 C.3     1  UNL1        0.0898
     26 C         141.5672  137.4203  163.9291 C.3     1  UNL1        0.1116
     27 C         141.6272  138.2844  165.1537 C.ar    1  UNL1       -0.0129
     28 C         140.4265  139.0820  165.5685 C.ar    1  UNL1       -0.0007
     29 C         140.4866  139.9460  166.7932 C.ar    1  UNL1        0.0369
     30 C         141.7475  140.0124  167.6030 C.ar    1  UNL1        0.1468
     31 C         142.9482  139.2148  167.1883 C.ar    1  UNL1        0.0369
     32 C         142.8881  138.3507  165.9636 C.ar    1  UNL1       -0.0007
     33 O         141.8076  140.8764  168.8277 O.3     1  UNL1       -0.4045
     34 C         143.0655  141.6243  169.1570 C.3     1  UNL1        0.5753
     35 F         144.3234  142.3721  169.4863 F       1  UNL1       -0.1328
     36 F         142.7276  142.6507  168.1167 F       1  UNL1       -0.1328
     37 F         143.4034  140.5979  170.1973 F       1  UNL1       -0.1328
@<TRIPOS>BOND
     1    24    25    1
     2    25    20    1
     3    20    21   am
     4    21    22    2
     5    21    11    1
     6    11    12   ar
     7    12    13   ar
     8    13    14   ar
     9    14    15    1
    10    14    16   ar
    11    16    10    1
    12     1    10    1
    13     1     2    1
    14     2     3    1
    15     3     4   am
    16     4     5    2
    17     4    26    1
    18    26    27    1
    19    27    28   ar
    20    28    29   ar
    21    29    30   ar
    22    30    33    1
    23    33    34    1
    24    34    35    1
    25    34    36    1
    26    34    37    1
    27    30    31   ar
    28    31    32   ar
    29     3     6    1
    30     6     7    1
    31     7     8    1
    32     7     9    1
    33    16    17   ar
    34    17    11   ar
    35     7     1    1
    36    32    27   ar
    37    20    23    1
    38    15    18    1
    39    15    19    1
@<TRIPOS>MOLECULE
*****
 37 39 0 0 0
SMALL
GASTEIGER

@<TRIPOS>ATOM
      1 C         138.0183  142.4969  162.2075 C.3     1  UNL1        0.2478
      2 C         138.3071  141.0342  162.3720 C.3     1  UNL1        0.1428
      3 N         138.2293  140.7078  163.8339 N.am    1  UNL1       -0.2700
      4 C         138.4497  139.3575  164.4489 C.2     1  UNL1        0.2303
      5 O         138.7819  138.1821  163.5782 O.2     1  UNL1       -0.2745
      6 C         137.8924  141.9689  164.5731 C.3     1  UNL1        0.1640
      7 C         137.7620  143.0746  163.5679 C.3     1  UNL1        0.3192
      8 F         137.4655  143.9204  164.7707 F       1  UNL1       -0.1985
      9 F         137.5696  144.3571  162.8142 F       1  UNL1       -0.1985
     10 O         137.9906  143.2497  160.9104 O.3     1  UNL1       -0.4689
     11 C         139.2201  141.3530  157.6484 C.ar    1  UNL1        0.0756
     12 C         140.5954  141.9296  157.4867 C.ar    1  UNL1        0.1050
     13 N         141.1025  142.9461  158.4662 N.ar    1  UNL1       -0.2263
     14 C         140.2342  143.3862  159.6075 C.ar    1  UNL1        0.1597
     15 N         140.7413  144.4027  160.5870 N.pl3   1  UNL1       -0.3402
     16 C         138.8590  142.8097  159.7692 C.ar    1  UNL1        0.1698
     17 C         138.3519  141.7931  158.7896 C.ar    1  UNL1        0.0459
     18 H         141.6439  144.7811  160.4808 H       1  UNL1        0.1438
     19 H         140.1714  144.6916  161.3360 H       1  UNL1        0.1438
     20 N         138.1110  140.7823  155.3694 N.am    1  UNL1       -0.3008
     21 C         138.7131  140.3365  156.6688 C.2     1  UNL1        0.2475
     22 O         138.8082  138.8741  156.9888 O.2     1  UNL1       -0.2701
     23 H         138.0486  141.7421  155.1594 H       1  UNL1        0.1497
     24 C         136.1980  139.2545  154.4996 C.3     1  UNL1        0.0230
     25 C         137.6039  139.7657  154.3898 C.3     1  UNL1        0.0898
     26 C         138.3380  139.1826  165.9344 C.3     1  UNL1        0.1116
     27 C         139.4844  139.5648  166.8230 C.ar    1  UNL1       -0.0129
     28 C         140.8831  139.5721  166.2814 C.ar    1  UNL1       -0.0007
     29 C         142.0295  139.9543  167.1701 C.ar    1  UNL1        0.0369
     30 C         141.7771  140.3292  168.6004 C.ar    1  UNL1        0.1468
     31 C         140.3783  140.3220  169.1421 C.ar    1  UNL1        0.0369
     32 C         139.2320  139.9397  168.2534 C.ar    1  UNL1       -0.0007
     33 O         142.9235  140.7114  169.4891 O.3     1  UNL1       -0.4045
     34 C         143.0292  142.1117  170.0164 C.3     1  UNL1        0.5753
     35 F         143.1350  143.5119  170.5437 F       1  UNL1       -0.1328
     36 F         142.2895  141.7011  171.2550 F       1  UNL1       -0.1328
     37 F         143.7690  142.5222  168.7778 F       1  UNL1       -0.1328
@<TRIPOS>BOND
     1    24    25    1
     2    25    20    1
     3    20    21   am
     4    21    22    2
     5    21    11    1
     6    11    12   ar
     7    12    13   ar
     8    13    14   ar
     9    14    15    1
    10    14    16   ar
    11    16    10    1
    12     1    10    1
    13     1     2    1
    14     2     3    1
    15     3     4   am
    16     4     5    2
    17     4    26    1
    18    26    27    1
    19    27    28   ar
    20    28    29   ar
    21    29    30   ar
    22    30    33    1
    23    33    34    1
    24    34    35    1
    25    34    36    1
    26    34    37    1
    27    30    31   ar
    28    31    32   ar
    29     3     6    1
    30     6     7    1
    31     7     8    1
    32     7     9    1
    33    16    17   ar
    34    17    11   ar
    35     7     1    1
    36    32    27   ar
    37    20    23    1
    38    15    18    1
    39    15    19    1
@<TRIPOS>MOLECULE
*****
 37 39 0 0 0
SMALL
GASTEIGER

@<TRIPOS>ATOM
      1 C         138.0878  142.0150  161.9669 C.3     1  UNL1        0.2478
      2 C         138.3509  140.5858  162.3388 C.3     1  UNL1        0.1428
      3 N         138.2194  140.4626  163.8279 N.am    1  UNL1       -0.2700
      4 C         138.4005  139.2068  164.6281 C.2     1  UNL1        0.2303
      5 O         138.7457  137.9207  163.9376 O.2     1  UNL1       -0.2745
      6 C         137.8750  141.8156  164.3764 C.3     1  UNL1        0.1640
      7 C         137.7937  142.7750  163.2263 C.3     1  UNL1        0.3192
      8 F         137.4684  143.7796  164.2917 F       1  UNL1       -0.1985
      9 F         137.6444  143.9445  162.2988 F       1  UNL1       -0.1985
     10 O         138.1142  142.5842  160.5794 O.3     1  UNL1       -0.4689
     11 C         141.4423  142.1728  158.4570 C.ar    1  UNL1        0.0756
     12 C         141.0694  141.0265  157.5643 C.ar    1  UNL1        0.1050
     13 N         139.7114  140.3994  157.6767 N.ar    1  UNL1       -0.2263
     14 C         138.7263  140.9186  158.6817 C.ar    1  UNL1        0.1597
     15 N         137.3683  140.2915  158.7940 N.pl3   1  UNL1       -0.3402
     16 C         139.0993  142.0649  159.5743 C.ar    1  UNL1        0.1698
     17 C         140.4573  142.6920  159.4620 C.ar    1  UNL1        0.0459
     18 H         137.1236  139.5392  158.2081 H       1  UNL1        0.1438
     19 H         136.7218  140.6323  159.4536 H       1  UNL1        0.1438
     20 N         143.9916  141.9534  158.0067 N.am    1  UNL1       -0.3008
     21 C         142.8003  142.7999  158.3446 C.2     1  UNL1        0.2475
     22 O         142.9670  144.2734  158.5702 O.2     1  UNL1       -0.2701
     23 H         143.8823  140.9863  157.8587 H       1  UNL1        0.1497
     24 C         146.2890  142.1458  156.8087 C.3     1  UNL1        0.0230
     25 C         145.3496  142.5805  157.8944 C.3     1  UNL1        0.0898
     26 C         138.2363  139.2371  166.1188 C.3     1  UNL1        0.1116
     27 C         139.3941  139.6175  166.9934 C.ar    1  UNL1       -0.0129
     28 C         140.7807  139.6649  166.4235 C.ar    1  UNL1       -0.0007
     29 C         141.9384  140.0454  167.2981 C.ar    1  UNL1        0.0369
     30 C         141.7094  140.3784  168.7426 C.ar    1  UNL1        0.1468
     31 C         140.3227  140.3311  169.3126 C.ar    1  UNL1        0.0369
     32 C         139.1650  139.9506  168.4379 C.ar    1  UNL1       -0.0007
     33 O         142.8671  140.7589  169.6173 O.3     1  UNL1       -0.4045
     34 C         143.0079  142.1710  170.1030 C.3     1  UNL1        0.5753
     35 F         143.1487  143.5832  170.5887 F       1  UNL1       -0.1328
     36 F         143.7681  142.5232  168.8587 F       1  UNL1       -0.1328
     37 F         142.2477  141.8189  171.3472 F       1  UNL1       -0.1328
@<TRIPOS>BOND
     1    24    25    1
     2    25    20    1
     3    20    21   am
     4    21    22    2
     5    21    11    1
     6    11    12   ar
     7    12    13   ar
     8    13    14   ar
     9    14    15    1
    10    14    16   ar
    11    16    10    1
    12     1    10    1
    13     1     2    1
    14     2     3    1
    15     3     4   am
    16     4     5    2
    17     4    26    1
    18    26    27    1
    19    27    28   ar
    20    28    29   ar
    21    29    30   ar
    22    30    33    1
    23    33    34    1
    24    34    35    1
    25    34    36    1
    26    34    37    1
    27    30    31   ar
    28    31    32   ar
    29     3     6    1
    30     6     7    1
    31     7     8    1
    32     7     9    1
    33    16    17   ar
    34    17    11   ar
    35     7     1    1
    36    32    27   ar
    37    20    23    1
    38    15    18    1
    39    15    19    1
@<TRIPOS>MOLECULE
*****
 37 39 0 0 0
SMALL
GASTEIGER

@<TRIPOS>ATOM
      1 C         142.9845  139.0563  160.8148 C.3     1  UNL1        0.2478
      2 C         143.8887  139.3792  161.9672 C.3     1  UNL1        0.1428
      3 N         143.2720  138.8146  163.2126 N.am    1  UNL1       -0.2700
      4 C         143.8408  138.9058  164.5976 C.2     1  UNL1        0.2303
      5 O         145.1432  139.6131  164.8284 O.2     1  UNL1       -0.2745
      6 C         141.9866  138.1428  162.8298 C.3     1  UNL1        0.1640
      7 C         141.8090  138.2922  161.3479 C.3     1  UNL1        0.3192
      8 F         140.5408  137.5258  161.5814 F       1  UNL1       -0.1985
      9 F         141.3662  138.2814  159.9148 F       1  UNL1       -0.1985
     10 O         143.2154  139.4316  159.3810 O.3     1  UNL1       -0.4689
     11 C         141.9978  143.2017  159.1486 C.ar    1  UNL1        0.0756
     12 C         142.9370  143.7394  158.1101 C.ar    1  UNL1        0.1050
     13 N         143.9691  142.8412  157.4951 N.ar    1  UNL1       -0.2263
     14 C         144.0619  141.4053  157.9188 C.ar    1  UNL1        0.1597
     15 N         145.0939  140.5071  157.3038 N.pl3   1  UNL1       -0.3402
     16 C         143.1226  140.8676  158.9573 C.ar    1  UNL1        0.1698
     17 C         142.0906  141.7658  159.5723 C.ar    1  UNL1        0.0459
     18 H         145.7104  140.8601  156.6222 H       1  UNL1        0.1438
     19 H         145.1548  139.5647  157.5819 H       1  UNL1        0.1438
     20 N         141.3406  145.0059  160.8987 N.am    1  UNL1       -0.3008
     21 C         140.9658  144.0999  159.7636 C.2     1  UNL1        0.2475
     22 O         139.5589  144.0921  159.2433 O.2     1  UNL1       -0.2701
     23 H         142.2639  145.0110  161.2402 H       1  UNL1        0.1497
     24 C         139.3643  145.3644  162.5468 C.3     1  UNL1        0.0230
     25 C         140.3085  145.9041  161.5137 C.3     1  UNL1        0.0898
     26 C         143.1071  138.2897  165.7518 C.3     1  UNL1        0.1116
     27 C         142.2718  139.1487  166.6542 C.ar    1  UNL1       -0.0129
     28 C         140.9203  139.6178  166.2035 C.ar    1  UNL1       -0.0007
     29 C         140.0851  140.4768  167.1060 C.ar    1  UNL1        0.0369
     30 C         140.6015  140.8667  168.4593 C.ar    1  UNL1        0.1468
     31 C         141.9531  140.3977  168.9101 C.ar    1  UNL1        0.0369
     32 C         142.7883  139.5386  168.0075 C.ar    1  UNL1       -0.0007
     33 O         139.7663  141.7257  169.3618 O.3     1  UNL1       -0.4045
     34 C         140.2154  143.1163  169.7003 C.3     1  UNL1        0.5753
     35 F         140.6644  144.5069  170.0389 F       1  UNL1       -0.1328
     36 F         139.8282  142.8928  171.1322 F       1  UNL1       -0.1328
     37 F         140.6025  143.3399  168.2685 F       1  UNL1       -0.1328
@<TRIPOS>BOND
     1    24    25    1
     2    25    20    1
     3    20    21   am
     4    21    22    2
     5    21    11    1
     6    11    12   ar
     7    12    13   ar
     8    13    14   ar
     9    14    15    1
    10    14    16   ar
    11    16    10    1
    12     1    10    1
    13     1     2    1
    14     2     3    1
    15     3     4   am
    16     4     5    2
    17     4    26    1
    18    26    27    1
    19    27    28   ar
    20    28    29   ar
    21    29    30   ar
    22    30    33    1
    23    33    34    1
    24    34    35    1
    25    34    36    1
    26    34    37    1
    27    30    31   ar
    28    31    32   ar
    29     3     6    1
    30     6     7    1
    31     7     8    1
    32     7     9    1
    33    16    17   ar
    34    17    11   ar
    35     7     1    1
    36    32    27   ar
    37    20    23    1
    38    15    18    1
    39    15    19    1
@<TRIPOS>MOLECULE
*****
 37 39 0 0 0
SMALL
GASTEIGER

@<TRIPOS>ATOM
      1 C         139.9102  143.8818  159.5779 C.3     1  UNL1        0.2478
      2 C         139.0041  142.8109  160.1090 C.3     1  UNL1        0.1428
      3 N         138.7417  143.1018  161.5570 N.am    1  UNL1       -0.2700
      4 C         137.8857  142.2853  162.4793 C.2     1  UNL1        0.2303
      5 O         137.1999  141.0520  161.9708 O.2     1  UNL1       -0.2745
      6 C         139.4857  144.3525  161.9207 C.3     1  UNL1        0.1640
      7 C         140.2079  144.8345  160.6976 C.3     1  UNL1        0.3192
      8 F         140.6770  145.9362  161.6010 F       1  UNL1       -0.1985
      9 F         141.0281  145.5469  159.6633 F       1  UNL1       -0.1985
     10 O         140.4278  143.9823  158.1736 O.3     1  UNL1       -0.4689
     11 C         137.4945  143.7614  155.5096 C.ar    1  UNL1        0.0756
     12 C         137.6369  145.0862  154.8206 C.ar    1  UNL1        0.1050
     13 N         138.7096  146.0430  155.2494 N.ar    1  UNL1       -0.2263
     14 C         139.6399  145.6751  156.3670 C.ar    1  UNL1        0.1597
     15 N         140.7126  146.6319  156.7957 N.pl3   1  UNL1       -0.3402
     16 C         139.4975  144.3503  157.0559 C.ar    1  UNL1        0.1698
     17 C         138.4248  143.3935  156.6272 C.ar    1  UNL1        0.0459
     18 H         140.8061  147.5014  156.3436 H       1  UNL1        0.1438
     19 H         141.3232  146.3904  157.5293 H       1  UNL1        0.1438
     20 N         135.8183  141.8591  156.0767 N.am    1  UNL1       -0.3008
     21 C         136.4218  142.8046  155.0808 C.2     1  UNL1        0.2475
     22 O         135.9526  142.7932  153.6562 O.2     1  UNL1       -0.2701
     23 H         136.1263  141.8666  157.0118 H       1  UNL1        0.1497
     24 C         135.1142  139.6231  154.9566 C.3     1  UNL1        0.0230
     25 C         134.7456  140.9023  155.6480 C.3     1  UNL1        0.0898
     26 C         137.7154  142.7022  163.9101 C.3     1  UNL1        0.1116
     27 C         138.6182  142.1397  164.9678 C.ar    1  UNL1       -0.0129
     28 C         138.5142  140.6932  165.3509 C.ar    1  UNL1       -0.0007
     29 C         139.4170  140.1308  166.4086 C.ar    1  UNL1        0.0369
     30 C         140.4237  141.0149  167.0831 C.ar    1  UNL1        0.1468
     31 C         140.5277  142.4614  166.7000 C.ar    1  UNL1        0.0369
     32 C         139.6249  143.0238  165.6423 C.ar    1  UNL1       -0.0007
     33 O         141.3264  140.4524  168.1408 O.3     1  UNL1       -0.4045
     34 C         140.7603  140.0348  169.4656 C.3     1  UNL1        0.5753
     35 F         140.1942  139.6171  170.7904 F       1  UNL1       -0.1328
     36 F         141.8437  139.0067  169.6044 F       1  UNL1       -0.1328
     37 F         139.6769  141.0629  169.3267 F       1  UNL1       -0.1328
@<TRIPOS>BOND
     1    24    25    1
     2    25    20    1
     3    20    21   am
     4    21    22    2
     5    21    11    1
     6    11    12   ar
     7    12    13   ar
     8    13    14   ar
     9    14    15    1
    10    14    16   ar
    11    16    10    1
    12     1    10    1
    13     1     2    1
    14     2     3    1
    15     3     4   am
    16     4     5    2
    17     4    26    1
    18    26    27    1
    19    27    28   ar
    20    28    29   ar
    21    29    30   ar
    22    30    33    1
    23    33    34    1
    24    34    35    1
    25    34    36    1
    26    34    37    1
    27    30    31   ar
    28    31    32   ar
    29     3     6    1
    30     6     7    1
    31     7     8    1
    32     7     9    1
    33    16    17   ar
    34    17    11   ar
    35     7     1    1
    36    32    27   ar
    37    20    23    1
    38    15    18    1
    39    15    19    1
