@<TRIPOS>MOLECULE
*****
 32 35 0 0 0
SMALL
GASTEIGER

@<TRIPOS>ATOM
      1 C         138.2911  139.3116  161.1324 C.3     1  UNL1        0.0992
      2 C         138.5531  139.3117  165.6248 C.3     1  UNL1        0.0744
      3 C         138.1636  140.5637  164.8962 C.3     1  UNL1        0.0369
      4 C         138.0763  140.5637  163.3987 C.3     1  UNL1        0.0741
      5 N         138.3784  139.3117  162.6299 N.3     1  UNL1       -0.2689
      6 C         138.7679  138.0597  163.3584 C.3     1  UNL1        0.0741
      7 C         138.8553  138.0597  164.8559 C.3     1  UNL1        0.0369
      8 C         139.6974  140.1225  167.8118 C.2     1  UNL1        0.2671
      9 O         140.6670  140.9332  167.0040 O.2     1  UNL1       -0.2711
     10 N         138.6404  139.3118  167.1222 N.am    1  UNL1       -0.3028
     11 H         138.0040  138.7797  167.6524 H       1  UNL1        0.1495
     12 C         139.7847  140.1225  169.3093 C.3     1  UNL1        0.2923
     13 O         139.1717  141.2428  170.0963 O.3     1  UNL1       -0.4384
     14 C         140.4010  143.5072  169.7627 C.3     1  UNL1        0.1212
     15 C         140.0380  142.3424  170.6353 C.2     1  UNL1        0.3180
     16 O         140.5413  142.2771  172.0468 O.2     1  UNL1       -0.2501
     17 C         139.4789  138.9042  160.3119 C.ar    1  UNL1       -0.0059
     18 C         140.7547  138.4991  160.9887 C.ar    1  UNL1        0.0002
     19 C         141.9425  138.0917  160.1682 C.ar    1  UNL1        0.0373
     20 C         141.8544  138.0894  158.6707 C.ar    1  UNL1        0.1477
     21 C         140.5785  138.4945  157.9939 C.ar    1  UNL1        0.0373
     22 C         139.3908  138.9019  158.8145 C.ar    1  UNL1        0.0002
     23 O         143.0421  137.6820  157.8502 O.3     1  UNL1       -0.4313
     24 C         142.9115  136.5861  156.8343 C.ar    1  UNL1        0.2628
     25 N         142.3968  136.7389  155.4337 N.ar    1  UNL1       -0.2050
     26 C         142.4400  135.3922  154.7745 C.ar    1  UNL1        0.0910
     27 C         142.0562  134.9357  153.3982 C.ar    1  UNL1        0.0197
     28 C         142.2139  133.4941  153.0150 C.ar    1  UNL1        0.0016
     29 C         142.7553  132.5090  154.0082 C.ar    1  UNL1        0.0006
     30 C         143.1391  132.9655  155.3845 C.ar    1  UNL1        0.0081
     31 C         142.9814  134.4071  155.7677 C.ar    1  UNL1        0.0515
     32 S         143.2728  135.1450  157.0407 S.2     1  UNL1       -0.0283
@<TRIPOS>BOND
     1    14    15    1
     2    15    16    2
     3    15    13    1
     4    13    12    1
     5    12     8    1
     6     8     9    2
     7     8    10   am
     8    10     2    1
     9     2     3    1
    10     3     4    1
    11     4     5    1
    12     5     1    1
    13     1    17    1
    14    17    18   ar
    15    18    19   ar
    16    19    20   ar
    17    20    23    1
    18    23    24    1
    19    24    25   ar
    20    25    26   ar
    21    26    27   ar
    22    27    28   ar
    23    28    29   ar
    24    29    30   ar
    25    30    31   ar
    26    31    32   ar
    27    20    21   ar
    28    21    22   ar
    29     5     6    1
    30     6     7    1
    31     7     2    1
    32    22    17   ar
    33    32    24   ar
    34    31    26   ar
    35    10    11    1
@<TRIPOS>MOLECULE
*****
 32 35 0 0 0
SMALL
GASTEIGER

@<TRIPOS>ATOM
      1 C         144.9709  140.6057  163.3704 C.3     1  UNL1        0.0992
      2 C         142.0497  140.2867  166.7785 C.3     1  UNL1        0.0744
      3 C         142.4877  139.0520  166.0479 C.3     1  UNL1        0.0369
      4 C         143.4614  139.1583  164.9119 C.3     1  UNL1        0.0741
      5 N         143.9972  140.4994  164.5064 N.3     1  UNL1       -0.2689
      6 C         143.5593  141.7341  165.2369 C.3     1  UNL1        0.0741
      7 C         142.5856  141.6278  166.3730 C.3     1  UNL1        0.0369
      8 C         141.5612  139.8173  169.2866 C.2     1  UNL1        0.2671
      9 O         143.0200  139.5605  169.5228 O.2     1  UNL1       -0.2711
     10 N         141.0760  140.1804  167.9145 N.am    1  UNL1       -0.3028
     11 H         140.1185  140.3489  167.7595 H       1  UNL1        0.1495
     12 C         140.5874  139.7109  170.4226 C.3     1  UNL1        0.2923
     13 O         140.0179  140.9532  171.0411 O.3     1  UNL1       -0.4384
     14 C         140.3514  143.2892  169.9538 C.3     1  UNL1        0.1212
     15 C         140.7690  142.2485  170.9501 C.2     1  UNL1        0.3180
     16 O         141.9377  142.5030  171.8553 O.2     1  UNL1       -0.2501
     17 C         144.4798  140.5521  161.9541 C.ar    1  UNL1       -0.0059
     18 C         144.3664  141.8141  161.1513 C.ar    1  UNL1        0.0002
     19 C         143.8753  141.7604  159.7349 C.ar    1  UNL1        0.0373
     20 C         143.4975  140.4448  159.1214 C.ar    1  UNL1        0.1477
     21 C         143.6108  139.1828  159.9243 C.ar    1  UNL1        0.0373
     22 C         144.1020  139.2364  161.3406 C.ar    1  UNL1        0.0002
     23 O         143.0064  140.3911  157.7052 O.3     1  UNL1       -0.4313
     24 C         142.8147  139.0667  157.0275 C.ar    1  UNL1        0.2628
     25 N         143.9056  138.1486  156.5615 N.ar    1  UNL1       -0.2050
     26 C         143.2636  136.9424  155.9429 C.ar    1  UNL1        0.0910
     27 C         143.8414  135.7092  155.3142 C.ar    1  UNL1        0.0197
     28 C         142.9316  134.6485  154.7691 C.ar    1  UNL1        0.0016
     29 C         141.4439  134.8210  154.8527 C.ar    1  UNL1        0.0006
     30 C         140.8660  136.0542  155.4814 C.ar    1  UNL1        0.0081
     31 C         141.7759  137.1149  156.0265 C.ar    1  UNL1        0.0515
     32 S         141.4985  138.4278  156.6968 S.2     1  UNL1       -0.0283
@<TRIPOS>BOND
     1    14    15    1
     2    15    16    2
     3    15    13    1
     4    13    12    1
     5    12     8    1
     6     8     9    2
     7     8    10   am
     8    10     2    1
     9     2     3    1
    10     3     4    1
    11     4     5    1
    12     5     1    1
    13     1    17    1
    14    17    18   ar
    15    18    19   ar
    16    19    20   ar
    17    20    23    1
    18    23    24    1
    19    24    25   ar
    20    25    26   ar
    21    26    27   ar
    22    27    28   ar
    23    28    29   ar
    24    29    30   ar
    25    30    31   ar
    26    31    32   ar
    27    20    21   ar
    28    21    22   ar
    29     5     6    1
    30     6     7    1
    31     7     2    1
    32    22    17   ar
    33    32    24   ar
    34    31    26   ar
    35    10    11    1
@<TRIPOS>MOLECULE
*****
 32 35 0 0 0
SMALL
GASTEIGER

@<TRIPOS>ATOM
      1 C         137.3621  139.8014  161.3954 C.3     1  UNL1        0.0992
      2 C         139.0620  140.4715  165.5078 C.3     1  UNL1        0.0744
      3 C         138.3532  141.5870  164.7982 C.3     1  UNL1        0.0369
      4 C         137.7866  141.3636  163.4275 C.3     1  UNL1        0.0741
      5 N         137.9287  140.0248  162.7662 N.3     1  UNL1       -0.2689
      6 C         138.6375  138.9093  163.4757 C.3     1  UNL1        0.0741
      7 C         139.2041  139.1327  164.8465 C.3     1  UNL1        0.0369
      8 C         139.0994  139.9144  168.0451 C.2     1  UNL1        0.2671
      9 O         138.0037  138.9106  167.8410 O.2     1  UNL1       -0.2711
     10 N         139.6285  140.6949  166.8786 N.am    1  UNL1       -0.3028
     11 H         140.3477  141.3537  167.0126 H       1  UNL1        0.1495
     12 C         139.6660  140.1378  169.4159 C.3     1  UNL1        0.2923
     13 O         139.1337  141.2453  170.2762 O.3     1  UNL1       -0.4384
     14 C         140.3598  143.4864  169.8025 C.3     1  UNL1        0.1212
     15 C         140.0446  142.3484  170.7275 C.2     1  UNL1        0.3180
     16 O         140.6403  142.3134  172.1036 O.2     1  UNL1       -0.2501
     17 C         138.2807  139.5604  160.2343 C.ar    1  UNL1       -0.0059
     18 C         138.1038  140.3381  158.9640 C.ar    1  UNL1        0.0002
     19 C         139.0224  140.0971  157.8028 C.ar    1  UNL1        0.0373
     20 C         140.1179  139.0783  157.9121 C.ar    1  UNL1        0.1477
     21 C         140.2948  138.3006  159.1825 C.ar    1  UNL1        0.0373
     22 C         139.3763  138.5416  160.3436 C.ar    1  UNL1        0.0002
     23 O         141.0365  138.8373  156.7510 O.3     1  UNL1       -0.4313
     24 C         141.5118  137.4475  156.4467 C.ar    1  UNL1        0.2628
     25 N         142.7425  136.7950  157.0032 N.ar    1  UNL1       -0.2050
     26 C         142.8312  135.4105  156.4328 C.ar    1  UNL1        0.0910
     27 C         143.8308  134.3085  156.6238 C.ar    1  UNL1        0.0197
     28 C         143.6546  133.0034  155.9057 C.ar    1  UNL1        0.0016
     29 C         142.4788  132.8003  154.9967 C.ar    1  UNL1        0.0006
     30 C         141.4792  133.9023  154.8058 C.ar    1  UNL1        0.0081
     31 C         141.6555  135.2073  155.5238 C.ar    1  UNL1        0.0515
     32 S         140.8400  136.4663  155.5324 S.2     1  UNL1       -0.0283
@<TRIPOS>BOND
     1    14    15    1
     2    15    16    2
     3    15    13    1
     4    13    12    1
     5    12     8    1
     6     8     9    2
     7     8    10   am
     8    10     2    1
     9     2     3    1
    10     3     4    1
    11     4     5    1
    12     5     1    1
    13     1    17    1
    14    17    18   ar
    15    18    19   ar
    16    19    20   ar
    17    20    23    1
    18    23    24    1
    19    24    25   ar
    20    25    26   ar
    21    26    27   ar
    22    27    28   ar
    23    28    29   ar
    24    29    30   ar
    25    30    31   ar
    26    31    32   ar
    27    20    21   ar
    28    21    22   ar
    29     5     6    1
    30     6     7    1
    31     7     2    1
    32    22    17   ar
    33    32    24   ar
    34    31    26   ar
    35    10    11    1
@<TRIPOS>MOLECULE
*****
 32 35 0 0 0
SMALL
GASTEIGER

@<TRIPOS>ATOM
      1 C         138.5384  138.7061  161.2745 C.3     1  UNL1        0.0992
      2 C         142.3886  139.2185  159.0022 C.3     1  UNL1        0.0744
      3 C         141.1403  138.8065  158.2796 C.3     1  UNL1        0.0369
      4 C         139.8569  138.6357  159.0370 C.3     1  UNL1        0.0741
      5 N         139.8217  138.8769  160.5171 N.3     1  UNL1       -0.2689
      6 C         141.0699  139.2889  161.2397 C.3     1  UNL1        0.0741
      7 C         142.3534  139.4597  160.4823 C.3     1  UNL1        0.0369
      8 C         143.9175  140.6427  157.4582 C.2     1  UNL1        0.2671
      9 O         142.8797  141.7254  157.4291 O.2     1  UNL1       -0.2711
     10 N         143.6719  139.3893  158.2448 N.am    1  UNL1       -0.3028
     11 H         144.3531  138.6787  158.2638 H       1  UNL1        0.1495
     12 C         145.2009  140.8135  156.7008 C.3     1  UNL1        0.2923
     13 O         145.7311  142.1891  156.4240 O.3     1  UNL1       -0.4384
     14 C         147.5314  143.2569  157.9632 C.3     1  UNL1        0.1212
     15 C         147.1672  142.5116  156.7134 C.2     1  UNL1        0.3180
     16 O         148.2390  142.0889  155.7530 O.2     1  UNL1       -0.2501
     17 C         138.5332  138.7982  162.7718 C.ar    1  UNL1       -0.0059
     18 C         138.1276  140.0767  163.4431 C.ar    1  UNL1        0.0002
     19 C         138.1224  140.1688  164.9404 C.ar    1  UNL1        0.0373
     20 C         138.5228  138.9823  165.7661 C.ar    1  UNL1        0.1477
     21 C         138.9284  137.7037  165.0947 C.ar    1  UNL1        0.0373
     22 C         138.9336  137.6117  163.5975 C.ar    1  UNL1        0.0002
     23 O         138.5176  139.0743  167.2632 O.3     1  UNL1       -0.4313
     24 C         139.5599  139.8908  167.9681 C.ar    1  UNL1        0.2628
     25 N         140.8894  140.2986  167.4059 N.ar    1  UNL1       -0.2050
     26 C         141.6070  141.1027  168.4493 C.ar    1  UNL1        0.0910
     27 C         142.9527  141.7652  168.4562 C.ar    1  UNL1        0.0197
     28 C         143.4124  142.5168  169.6701 C.ar    1  UNL1        0.0016
     29 C         142.5263  142.6059  170.8772 C.ar    1  UNL1        0.0006
     30 C         141.1806  141.9434  170.8703 C.ar    1  UNL1        0.0081
     31 C         140.7209  141.1918  169.6564 C.ar    1  UNL1        0.0515
     32 S         139.4558  140.4428  169.3590 S.2     1  UNL1       -0.0283
@<TRIPOS>BOND
     1    14    15    1
     2    15    16    2
     3    15    13    1
     4    13    12    1
     5    12     8    1
     6     8     9    2
     7     8    10   am
     8    10     2    1
     9     2     3    1
    10     3     4    1
    11     4     5    1
    12     5     1    1
    13     1    17    1
    14    17    18   ar
    15    18    19   ar
    16    19    20   ar
    17    20    23    1
    18    23    24    1
    19    24    25   ar
    20    25    26   ar
    21    26    27   ar
    22    27    28   ar
    23    28    29   ar
    24    29    30   ar
    25    30    31   ar
    26    31    32   ar
    27    20    21   ar
    28    21    22   ar
    29     5     6    1
    30     6     7    1
    31     7     2    1
    32    22    17   ar
    33    32    24   ar
    34    31    26   ar
    35    10    11    1
@<TRIPOS>MOLECULE
*****
 32 35 0 0 0
SMALL
GASTEIGER

@<TRIPOS>ATOM
      1 C         144.2844  139.7913  162.5827 C.3     1  UNL1        0.0992
      2 C         141.3374  139.7819  165.9834 C.3     1  UNL1        0.0744
      3 C         141.2057  140.7891  164.8796 C.3     1  UNL1        0.0369
      4 C         142.1880  140.7922  163.7460 C.3     1  UNL1        0.0741
      5 N         143.3021  139.7882  163.7163 N.3     1  UNL1       -0.2689
      6 C         143.4338  138.7810  164.8200 C.3     1  UNL1        0.0741
      7 C         142.4514  138.7779  165.9536 C.3     1  UNL1        0.0369
      8 C         140.8107  140.1180  168.5053 C.2     1  UNL1        0.2671
      9 O         142.2488  140.4602  168.7600 O.2     1  UNL1       -0.2711
     10 N         140.3551  139.7788  167.1170 N.am    1  UNL1       -0.3028
     11 H         139.4112  139.5542  166.9498 H       1  UNL1        0.1495
     12 C         139.8284  140.1149  169.6388 C.3     1  UNL1        0.2923
     13 O         139.2343  141.4054  170.1199 O.3     1  UNL1       -0.4384
     14 C         140.4256  143.7021  169.8826 C.3     1  UNL1        0.1212
     15 C         140.1211  142.4737  170.6878 C.2     1  UNL1        0.3180
     16 O         140.7034  142.3135  172.0609 O.2     1  UNL1       -0.2501
     17 C         143.8385  139.4077  161.2028 C.ar    1  UNL1       -0.0059
     18 C         144.0216  140.3647  160.0623 C.ar    1  UNL1        0.0002
     19 C         143.5757  139.9812  158.6824 C.ar    1  UNL1        0.0373
     20 C         142.9468  138.6406  158.4430 C.ar    1  UNL1        0.1477
     21 C         142.7637  137.6836  159.5835 C.ar    1  UNL1        0.0373
     22 C         143.2096  138.0672  160.9633 C.ar    1  UNL1        0.0002
     23 O         142.5009  138.2570  157.0631 O.3     1  UNL1       -0.4313
     24 C         142.5721  136.8249  156.6229 C.ar    1  UNL1        0.2628
     25 N         143.7612  135.9200  156.7548 N.ar    1  UNL1       -0.2050
     26 C         143.3908  134.5820  156.1869 C.ar    1  UNL1        0.0910
     27 C         144.1615  133.3028  156.0472 C.ar    1  UNL1        0.0197
     28 C         143.5142  132.1014  155.4245 C.ar    1  UNL1        0.0016
     29 C         142.0962  132.1793  154.9416 C.ar    1  UNL1        0.0006
     30 C         141.3255  133.4585  155.0814 C.ar    1  UNL1        0.0081
     31 C         141.9728  134.6599  155.7040 C.ar    1  UNL1        0.0515
     32 S         141.4668  136.0460  155.9735 S.2     1  UNL1       -0.0283
@<TRIPOS>BOND
     1    14    15    1
     2    15    16    2
     3    15    13    1
     4    13    12    1
     5    12     8    1
     6     8     9    2
     7     8    10   am
     8    10     2    1
     9     2     3    1
    10     3     4    1
    11     4     5    1
    12     5     1    1
    13     1    17    1
    14    17    18   ar
    15    18    19   ar
    16    19    20   ar
    17    20    23    1
    18    23    24    1
    19    24    25   ar
    20    25    26   ar
    21    26    27   ar
    22    27    28   ar
    23    28    29   ar
    24    29    30   ar
    25    30    31   ar
    26    31    32   ar
    27    20    21   ar
    28    21    22   ar
    29     5     6    1
    30     6     7    1
    31     7     2    1
    32    22    17   ar
    33    32    24   ar
    34    31    26   ar
    35    10    11    1
@<TRIPOS>MOLECULE
*****
 32 35 0 0 0
SMALL
GASTEIGER

@<TRIPOS>ATOM
      1 C         138.4546  138.8468  161.1977 C.3     1  UNL1        0.0992
      2 C         140.2293  142.1915  158.7661 C.3     1  UNL1        0.0744
      3 C         141.0434  141.5299  159.8383 C.3     1  UNL1        0.0369
      4 C         140.4519  140.4150  160.6488 C.3     1  UNL1        0.0741
      5 N         139.0461  139.9617  160.3872 N.3     1  UNL1       -0.2689
      6 C         138.2320  140.6232  159.3151 C.3     1  UNL1        0.0741
      7 C         138.8236  141.7381  158.5045 C.3     1  UNL1        0.0369
      8 C         140.6186  144.7309  158.3794 C.2     1  UNL1        0.2671
      9 O         139.8248  145.0406  159.6138 O.2     1  UNL1       -0.2711
     10 N         140.8209  143.3064  157.9555 N.am    1  UNL1       -0.3028
     11 H         141.3419  143.1031  157.1453 H       1  UNL1        0.1495
     12 C         141.2102  145.8458  157.5689 C.3     1  UNL1        0.2923
     13 O         140.6573  146.1607  156.2105 O.3     1  UNL1       -0.4384
     14 C         138.2554  145.9311  155.2471 C.3     1  UNL1        0.1212
     15 C         139.2575  146.6820  156.0729 C.2     1  UNL1        0.3180
     16 O         138.8598  147.9540  156.7611 O.2     1  UNL1       -0.2501
     17 C         138.4636  138.9221  162.6959 C.ar    1  UNL1       -0.0059
     18 C         138.0521  140.1888  163.3857 C.ar    1  UNL1        0.0002
     19 C         138.0611  140.2641  164.8838 C.ar    1  UNL1        0.0373
     20 C         138.4817  139.0725  165.6921 C.ar    1  UNL1        0.1477
     21 C         138.8932  137.8057  165.0022 C.ar    1  UNL1        0.0373
     22 C         138.8842  137.7305  163.5041 C.ar    1  UNL1        0.0002
     23 O         138.4908  139.1478  167.1901 O.3     1  UNL1       -0.4313
     24 C         139.5441  139.9505  167.8944 C.ar    1  UNL1        0.2628
     25 N         139.4102  140.5885  169.2454 N.ar    1  UNL1       -0.2050
     26 C         140.6997  141.2885  169.5573 C.ar    1  UNL1        0.0910
     27 C         141.1465  142.0863  170.7463 C.ar    1  UNL1        0.0197
     28 C         142.5241  142.6788  170.7772 C.ar    1  UNL1        0.0016
     29 C         143.4550  142.4734  169.6190 C.ar    1  UNL1        0.0006
     30 C         143.0082  141.6756  168.4300 C.ar    1  UNL1        0.0081
     31 C         141.6306  141.0831  168.3992 C.ar    1  UNL1        0.0515
     32 S         140.9164  140.2562  167.3715 S.2     1  UNL1       -0.0283
@<TRIPOS>BOND
     1    14    15    1
     2    15    16    2
     3    15    13    1
     4    13    12    1
     5    12     8    1
     6     8     9    2
     7     8    10   am
     8    10     2    1
     9     2     3    1
    10     3     4    1
    11     4     5    1
    12     5     1    1
    13     1    17    1
    14    17    18   ar
    15    18    19   ar
    16    19    20   ar
    17    20    23    1
    18    23    24    1
    19    24    25   ar
    20    25    26   ar
    21    26    27   ar
    22    27    28   ar
    23    28    29   ar
    24    29    30   ar
    25    30    31   ar
    26    31    32   ar
    27    20    21   ar
    28    21    22   ar
    29     5     6    1
    30     6     7    1
    31     7     2    1
    32    22    17   ar
    33    32    24   ar
    34    31    26   ar
    35    10    11    1
@<TRIPOS>MOLECULE
*****
 32 35 0 0 0
SMALL
GASTEIGER

@<TRIPOS>ATOM
      1 C         139.3237  139.9263  160.5863 C.3     1  UNL1        0.0992
      2 C         139.8732  140.2292  165.0424 C.3     1  UNL1        0.0744
      3 C         139.2330  139.0104  164.4467 C.3     1  UNL1        0.0369
      4 C         139.0498  138.9095  162.9614 C.3     1  UNL1        0.0741
      5 N         139.5069  140.0272  162.0716 N.3     1  UNL1       -0.2689
      6 C         140.1471  141.2460  162.6672 C.3     1  UNL1        0.0741
      7 C         140.3303  141.3470  164.1526 C.3     1  UNL1        0.0369
      8 C         141.3485  139.8981  167.1551 C.2     1  UNL1        0.2671
      9 O         142.4575  139.3651  166.2972 O.2     1  UNL1       -0.2711
     10 N         140.0564  140.3302  166.5277 N.am    1  UNL1       -0.3028
     11 H         139.3285  140.6800  167.0907 H       1  UNL1        0.1495
     12 C         141.5317  139.9991  168.6404 C.3     1  UNL1        0.2923
     13 O         140.4545  139.5120  169.5638 O.3     1  UNL1       -0.4384
     14 C         139.6877  141.9260  170.1423 C.3     1  UNL1        0.1212
     15 C         139.3945  140.4582  170.0447 C.2     1  UNL1        0.3180
     16 O         138.0415  139.9365  170.4281 O.2     1  UNL1       -0.2501
     17 C         140.3072  139.1513  159.7603 C.ar    1  UNL1       -0.0059
     18 C         141.6545  138.8088  160.3238 C.ar    1  UNL1        0.0002
     19 C         142.6380  138.0338  159.4977 C.ar    1  UNL1        0.0373
     20 C         142.2741  137.6014  158.1082 C.ar    1  UNL1        0.1477
     21 C         140.9268  137.9440  157.5448 C.ar    1  UNL1        0.0373
     22 C         139.9434  138.7189  158.3708 C.ar    1  UNL1        0.0002
     23 O         143.2575  136.8265  157.2822 O.3     1  UNL1       -0.4313
     24 C         142.9541  135.4119  156.8861 C.ar    1  UNL1        0.2628
     25 N         141.9620  134.9808  155.8470 N.ar    1  UNL1       -0.2050
     26 C         141.9842  133.4825  155.7783 C.ar    1  UNL1        0.0910
     27 C         141.2185  132.5049  154.9369 C.ar    1  UNL1        0.0197
     28 C         141.4587  131.0324  155.0922 C.ar    1  UNL1        0.0016
     29 C         142.4647  130.5376  156.0888 C.ar    1  UNL1        0.0006
     30 C         143.2304  131.5152  156.9301 C.ar    1  UNL1        0.0081
     31 C         142.9902  132.9877  156.7749 C.ar    1  UNL1        0.0515
     32 S         143.5896  134.1801  157.4595 S.2     1  UNL1       -0.0283
@<TRIPOS>BOND
     1    14    15    1
     2    15    16    2
     3    15    13    1
     4    13    12    1
     5    12     8    1
     6     8     9    2
     7     8    10   am
     8    10     2    1
     9     2     3    1
    10     3     4    1
    11     4     5    1
    12     5     1    1
    13     1    17    1
    14    17    18   ar
    15    18    19   ar
    16    19    20   ar
    17    20    23    1
    18    23    24    1
    19    24    25   ar
    20    25    26   ar
    21    26    27   ar
    22    27    28   ar
    23    28    29   ar
    24    29    30   ar
    25    30    31   ar
    26    31    32   ar
    27    20    21   ar
    28    21    22   ar
    29     5     6    1
    30     6     7    1
    31     7     2    1
    32    22    17   ar
    33    32    24   ar
    34    31    26   ar
    35    10    11    1
@<TRIPOS>MOLECULE
*****
 32 35 0 0 0
SMALL
GASTEIGER

@<TRIPOS>ATOM
      1 C         139.6257  143.5510  166.1540 C.3     1  UNL1        0.0992
      2 C         141.1080  140.4887  169.0993 C.3     1  UNL1        0.0744
      3 C         141.2788  141.9508  169.3876 C.3     1  UNL1        0.0369
      4 C         140.7847  142.9716  168.4058 C.3     1  UNL1        0.0741
      5 N         140.1198  142.5303  167.1357 N.3     1  UNL1       -0.2689
      6 C         139.9490  141.0682  166.8474 C.3     1  UNL1        0.0741
      7 C         140.4431  140.0474  167.8292 C.3     1  UNL1        0.0369
      8 C         142.7193  138.5417  169.7016 C.2     1  UNL1        0.2671
      9 O         143.3425  138.6363  168.3405 O.2     1  UNL1       -0.2711
     10 N         141.6021  139.4679  170.0810 N.am    1  UNL1       -0.3028
     11 H         141.1930  139.4058  170.9744 H       1  UNL1        0.1495
     12 C         143.2134  137.5209  170.6834 C.3     1  UNL1        0.2923
     13 O         144.2866  136.5527  170.2825 O.3     1  UNL1       -0.4384
     14 C         144.9164  134.9602  172.2363 C.3     1  UNL1        0.1212
     15 C         145.2807  136.0722  171.2979 C.2     1  UNL1        0.3180
     16 O         146.6390  136.7038  171.3748 O.2     1  UNL1       -0.2501
     17 C         140.3302  143.7324  164.8421 C.ar    1  UNL1       -0.0059
     18 C         139.5738  144.2333  163.6476 C.ar    1  UNL1        0.0002
     19 C         140.2782  144.4147  162.3357 C.ar    1  UNL1        0.0373
     20 C         141.7391  144.0951  162.2184 C.ar    1  UNL1        0.1477
     21 C         142.4955  143.5942  163.4130 C.ar    1  UNL1        0.0373
     22 C         141.7910  143.4128  164.7248 C.ar    1  UNL1        0.0002
     23 O         142.4435  144.2765  160.9067 O.3     1  UNL1       -0.4313
     24 C         141.6496  144.4957  159.6530 C.ar    1  UNL1        0.2628
     25 N         141.3321  145.8234  159.0313 N.ar    1  UNL1       -0.2050
     26 C         140.5200  145.5740  157.7950 C.ar    1  UNL1        0.0910
     27 C         139.9247  146.5048  156.7805 C.ar    1  UNL1        0.0197
     28 C         139.1450  145.9538  155.6237 C.ar    1  UNL1        0.0016
     29 C         138.9606  144.4720  155.4813 C.ar    1  UNL1        0.0006
     30 C         139.5559  143.5412  156.4958 C.ar    1  UNL1        0.0081
     31 C         140.3356  144.0922  157.6526 C.ar    1  UNL1        0.0515
     32 S         141.0337  143.4258  158.8009 S.2     1  UNL1       -0.0283
@<TRIPOS>BOND
     1    14    15    1
     2    15    16    2
     3    15    13    1
     4    13    12    1
     5    12     8    1
     6     8     9    2
     7     8    10   am
     8    10     2    1
     9     2     3    1
    10     3     4    1
    11     4     5    1
    12     5     1    1
    13     1    17    1
    14    17    18   ar
    15    18    19   ar
    16    19    20   ar
    17    20    23    1
    18    23    24    1
    19    24    25   ar
    20    25    26   ar
    21    26    27   ar
    22    27    28   ar
    23    28    29   ar
    24    29    30   ar
    25    30    31   ar
    26    31    32   ar
    27    20    21   ar
    28    21    22   ar
    29     5     6    1
    30     6     7    1
    31     7     2    1
    32    22    17   ar
    33    32    24   ar
    34    31    26   ar
    35    10    11    1
@<TRIPOS>MOLECULE
*****
 32 35 0 0 0
SMALL
GASTEIGER

@<TRIPOS>ATOM
      1 C         138.0651  139.4798  163.1812 C.3     1  UNL1        0.0992
      2 C         139.5869  140.2735  167.3410 C.3     1  UNL1        0.0744
      3 C         138.6519  139.1276  167.0903 C.3     1  UNL1        0.0369
      4 C         138.1447  138.8631  165.7037 C.3     1  UNL1        0.0741
      5 N         138.5723  139.7444  164.5678 N.3     1  UNL1       -0.2689
      6 C         139.5073  140.8902  164.8184 C.3     1  UNL1        0.0741
      7 C         140.0146  141.1548  166.2050 C.3     1  UNL1        0.0369
      8 C         141.5057  140.1828  169.0903 C.2     1  UNL1        0.2671
      9 O         142.4098  139.5630  168.0665 O.2     1  UNL1       -0.2711
     10 N         140.0942  140.5381  168.7275 N.am    1  UNL1       -0.3028
     11 H         139.5008  140.9449  169.3995 H       1  UNL1        0.1495
     12 C         142.0129  140.4474  170.4769 C.3     1  UNL1        0.2923
     13 O         141.5750  141.6785  171.2135 O.3     1  UNL1       -0.4384
     14 C         140.7524  143.7480  169.8754 C.3     1  UNL1        0.1212
     15 C         141.8360  143.0350  170.6288 C.2     1  UNL1        0.3180
     16 O         143.1804  143.6785  170.7975 O.2     1  UNL1       -0.2501
     17 C         139.0243  139.4260  162.0292 C.ar    1  UNL1       -0.0059
     18 C         138.9195  140.4287  160.9185 C.ar    1  UNL1        0.0002
     19 C         139.8787  140.3749  159.7665 C.ar    1  UNL1        0.0373
     20 C         140.9427  139.3183  159.7252 C.ar    1  UNL1        0.1477
     21 C         141.0474  138.3156  160.8359 C.ar    1  UNL1        0.0373
     22 C         140.0882  138.3694  161.9879 C.ar    1  UNL1        0.0002
     23 O         141.9019  139.2645  158.5732 O.3     1  UNL1       -0.4313
     24 C         142.0187  138.0145  157.7524 C.ar    1  UNL1        0.2628
     25 N         143.1419  137.0221  157.8122 N.ar    1  UNL1       -0.2050
     26 C         142.8503  135.9317  156.8244 C.ar    1  UNL1        0.0910
     27 C         143.6032  134.6900  156.4487 C.ar    1  UNL1        0.0197
     28 C         143.0527  133.7667  155.4026 C.ar    1  UNL1        0.0016
     29 C         141.7492  134.0851  154.7322 C.ar    1  UNL1        0.0006
     30 C         140.9962  135.3268  155.1079 C.ar    1  UNL1        0.0081
     31 C         141.5468  136.2501  156.1540 C.ar    1  UNL1        0.0515
     32 S         141.0329  137.5373  156.7275 S.2     1  UNL1       -0.0283
@<TRIPOS>BOND
     1    14    15    1
     2    15    16    2
     3    15    13    1
     4    13    12    1
     5    12     8    1
     6     8     9    2
     7     8    10   am
     8    10     2    1
     9     2     3    1
    10     3     4    1
    11     4     5    1
    12     5     1    1
    13     1    17    1
    14    17    18   ar
    15    18    19   ar
    16    19    20   ar
    17    20    23    1
    18    23    24    1
    19    24    25   ar
    20    25    26   ar
    21    26    27   ar
    22    27    28   ar
    23    28    29   ar
    24    29    30   ar
    25    30    31   ar
    26    31    32   ar
    27    20    21   ar
    28    21    22   ar
    29     5     6    1
    30     6     7    1
    31     7     2    1
    32    22    17   ar
    33    32    24   ar
    34    31    26   ar
    35    10    11    1
