@<TRIPOS>MOLECULE
*****
 31 33 0 0 0
SMALL
GASTEIGER

@<TRIPOS>ATOM
      1 C         142.4127  141.6097  166.1795 C.ar    1  UNL1        0.0275
      2 C         142.7368  141.9291  167.6088 C.ar    1  UNL1       -0.0009
      3 C         142.9506  140.8195  168.5954 C.ar    1  UNL1        0.0210
      4 C         142.8403  139.3906  168.1526 C.ar    1  UNL1        0.1397
      5 F         143.0542  138.2811  169.1390 F       1  UNL1       -0.2044
      6 C         142.5163  139.0713  166.7232 C.ar    1  UNL1        0.0587
      7 C         142.3025  140.1808  165.7367 C.ar    1  UNL1        0.1402
      8 F         141.9784  139.8615  164.3073 F       1  UNL1       -0.2044
      9 N         145.8642  141.5481  164.2216 N.pl3   1  UNL1       -0.3380
     10 C         144.5711  142.3083  164.2166 C.2     1  UNL1        0.1482
     11 N         143.4919  141.9590  165.1980 N.2     1  UNL1       -0.2484
     12 C         142.1989  142.7193  165.1930 C.3     1  UNL1        0.1351
     13 C         141.1196  142.3699  166.1745 C.3     1  UNL1        0.1687
     14 O         139.8266  143.1301  166.1694 O.3     1  UNL1       -0.3510
     15 C         139.6127  144.2397  165.1829 C.3     1  UNL1        0.1507
     16 C         140.6919  144.5890  164.2014 C.3     1  UNL1        0.0357
     17 C         141.9850  143.8288  164.2065 C.3     1  UNL1        0.0408
     18 C         143.0642  144.1781  163.2251 C.3     1  UNL1        0.0672
     19 S         144.3573  143.4178  163.2301 S.3     1  UNL1       -0.0807
     20 H         146.0046  140.8199  164.8691 H       1  UNL1        0.1442
     21 H         146.5725  141.7774  163.5775 H       1  UNL1        0.1442
     22 C         138.3197  144.9999  165.1778 C.3     1  UNL1        0.2225
     23 F         137.8578  145.7025  166.4200 F       1  UNL1       -0.2316
     24 C         143.2746  141.1389  170.0247 C.3     1  UNL1        0.0981
     25 N         142.3439  140.7077  171.1192 N.3     1  UNL1       -0.2866
     26 H         142.8055  140.9275  172.0018 H       1  UNL1        0.1238
     27 C         140.9613  141.2840  171.1983 C.3     1  UNL1        0.1734
     28 C         139.8834  140.7753  170.2876 C.3     1  UNL1        0.4118
     29 F         138.8055  140.2666  169.3770 F       1  UNL1       -0.1685
     30 F         139.3236  142.1624  170.1754 F       1  UNL1       -0.1685
     31 F         140.4432  139.3882  170.3999 F       1  UNL1       -0.1685
@<TRIPOS>BOND
     1     9    10    1
     2    10    11    2
     3    11    12    1
     4    12     1    1
     5     1     2   ar
     6     2     3   ar
     7     3    24    1
     8    24    25    1
     9    25    27    1
    10    27    28    1
    11    28    29    1
    12    28    30    1
    13    28    31    1
    14     3     4   ar
    15     4     5    1
    16     4     6   ar
    17     6     7   ar
    18     7     8    1
    19    12    13    1
    20    13    14    1
    21    14    15    1
    22    15    22    1
    23    22    23    1
    24    15    16    1
    25    17    16    1
    26    17    18    1
    27    18    19    1
    28    19    10    1
    29    17    12    1
    30     7     1   ar
    31     9    20    1
    32     9    21    1
    33    25    26    1
@<TRIPOS>MOLECULE
*****
 31 33 0 0 0
SMALL
GASTEIGER

@<TRIPOS>ATOM
      1 C         141.8872  141.0321  164.2821 C.ar    1  UNL1        0.0275
      2 C         141.4642  142.2072  163.4514 C.ar    1  UNL1       -0.0009
      3 C         142.1645  143.5249  163.6045 C.ar    1  UNL1        0.0210
      4 C         143.2878  143.6673  164.5883 C.ar    1  UNL1        0.1397
      5 F         143.9882  144.9849  164.7414 F       1  UNL1       -0.2044
      6 C         143.7109  142.4921  165.4190 C.ar    1  UNL1        0.0587
      7 C         143.0105  141.1745  165.2658 C.ar    1  UNL1        0.1402
      8 F         143.4335  139.9993  166.0965 F       1  UNL1       -0.2044
      9 N         143.8709  139.4802  161.2151 N.pl3   1  UNL1       -0.3380
     10 C         142.7428  139.1191  162.1354 C.2     1  UNL1        0.1482
     11 N         142.3150  140.0755  163.2087 N.2     1  UNL1       -0.2484
     12 C         141.1868  139.7144  164.1290 C.3     1  UNL1        0.1351
     13 C         140.7590  140.6710  165.2023 C.3     1  UNL1        0.1687
     14 O         139.6309  140.3099  166.1226 O.3     1  UNL1       -0.3510
     15 C         138.9306  138.9922  165.9695 C.3     1  UNL1        0.1507
     16 C         139.3584  138.0357  164.8962 C.3     1  UNL1        0.0357
     17 C         140.4865  138.3968  163.9759 C.3     1  UNL1        0.0408
     18 C         140.9143  137.4404  162.9026 C.3     1  UNL1        0.0672
     19 S         142.0425  137.8015  161.9823 S.3     1  UNL1       -0.0807
     20 H         144.3306  140.3450  161.3156 H       1  UNL1        0.1442
     21 H         144.1517  138.8524  160.5106 H       1  UNL1        0.1442
     22 C         137.8024  138.6311  166.8898 C.3     1  UNL1        0.2225
     23 F         137.3282  137.2105  166.9735 F       1  UNL1       -0.2316
     24 C         141.7415  144.7001  162.7739 C.3     1  UNL1        0.0981
     25 N         140.5930  145.5572  163.2170 N.3     1  UNL1       -0.2866
     26 H         140.7511  146.4861  162.8264 H       1  UNL1        0.1238
     27 C         139.1880  145.1712  162.8612 C.3     1  UNL1        0.1734
     28 C         138.3318  144.4518  163.8609 C.3     1  UNL1        0.4118
     29 F         137.4756  143.7324  164.8606 F       1  UNL1       -0.1685
     30 F         137.6562  143.7080  162.7471 F       1  UNL1       -0.1685
     31 F         139.0073  145.1955  164.9746 F       1  UNL1       -0.1685
@<TRIPOS>BOND
     1     9    10    1
     2    10    11    2
     3    11    12    1
     4    12     1    1
     5     1     2   ar
     6     2     3   ar
     7     3    24    1
     8    24    25    1
     9    25    27    1
    10    27    28    1
    11    28    29    1
    12    28    30    1
    13    28    31    1
    14     3     4   ar
    15     4     5    1
    16     4     6   ar
    17     6     7   ar
    18     7     8    1
    19    12    13    1
    20    13    14    1
    21    14    15    1
    22    15    22    1
    23    22    23    1
    24    15    16    1
    25    17    16    1
    26    17    18    1
    27    18    19    1
    28    19    10    1
    29    17    12    1
    30     7     1   ar
    31     9    20    1
    32     9    21    1
    33    25    26    1
@<TRIPOS>MOLECULE
*****
 31 33 0 0 0
SMALL
GASTEIGER

@<TRIPOS>ATOM
      1 C         139.9519  139.4541  164.4004 C.ar    1  UNL1        0.0275
      2 C         139.5737  140.7197  163.6898 C.ar    1  UNL1       -0.0009
      3 C         138.6354  140.6717  162.5204 C.ar    1  UNL1        0.0210
      4 C         138.0754  139.3580  162.0616 C.ar    1  UNL1        0.1397
      5 F         137.1372  139.3099  160.8922 F       1  UNL1       -0.2044
      6 C         138.4537  138.0922  162.7722 C.ar    1  UNL1        0.0587
      7 C         139.3919  138.1403  163.9416 C.ar    1  UNL1        0.1402
      8 F         139.7702  136.8746  164.6522 F       1  UNL1       -0.2044
      9 N         143.4025  138.6152  162.6285 N.pl3   1  UNL1       -0.3380
     10 C         142.8778  138.9268  163.9987 C.2     1  UNL1        0.1482
     11 N         141.4149  139.1904  164.1995 N.2     1  UNL1       -0.2484
     12 C         140.8901  139.5021  165.5698 C.3     1  UNL1        0.1351
     13 C         139.4272  139.7657  165.7706 C.3     1  UNL1        0.1687
     14 O         138.9024  140.0773  167.1408 O.3     1  UNL1       -0.3510
     15 C         139.8407  140.1254  168.3102 C.3     1  UNL1        0.1507
     16 C         141.3036  139.8617  168.1094 C.3     1  UNL1        0.0357
     17 C         141.8283  139.5501  166.7392 C.3     1  UNL1        0.0408
     18 C         143.2912  139.2865  166.5383 C.3     1  UNL1        0.0672
     19 S         143.8159  138.9749  165.1681 S.3     1  UNL1       -0.0807
     20 H         142.7868  138.5837  161.8610 H       1  UNL1        0.1442
     21 H         144.3627  138.4422  162.4967 H       1  UNL1        0.1442
     22 C         139.3159  140.4370  169.6805 C.3     1  UNL1        0.2225
     23 F         137.9161  140.0484  170.0538 F       1  UNL1       -0.2316
     24 C         138.2572  141.9374  161.8098 C.3     1  UNL1        0.0981
     25 N         137.3361  142.9209  162.4687 N.3     1  UNL1       -0.2866
     26 H         136.8830  142.4295  163.2391 H       1  UNL1        0.1238
     27 C         137.8826  144.1991  163.0322 C.3     1  UNL1        0.1734
     28 C         138.4016  144.2371  164.4390 C.3     1  UNL1        0.4118
     29 F         138.9207  144.2752  165.8458 F       1  UNL1       -0.1685
     30 F         137.4084  143.1848  164.8339 F       1  UNL1       -0.1685
     31 F         139.3949  145.2895  164.0441 F       1  UNL1       -0.1685
@<TRIPOS>BOND
     1     9    10    1
     2    10    11    2
     3    11    12    1
     4    12     1    1
     5     1     2   ar
     6     2     3   ar
     7     3    24    1
     8    24    25    1
     9    25    27    1
    10    27    28    1
    11    28    29    1
    12    28    30    1
    13    28    31    1
    14     3     4   ar
    15     4     5    1
    16     4     6   ar
    17     6     7   ar
    18     7     8    1
    19    12    13    1
    20    13    14    1
    21    14    15    1
    22    15    22    1
    23    22    23    1
    24    15    16    1
    25    17    16    1
    26    17    18    1
    27    18    19    1
    28    19    10    1
    29    17    12    1
    30     7     1   ar
    31     9    20    1
    32     9    21    1
    33    25    26    1
@<TRIPOS>MOLECULE
*****
 31 33 0 0 0
SMALL
GASTEIGER

@<TRIPOS>ATOM
      1 C         140.2265  141.2020  165.5115 C.ar    1  UNL1        0.0275
      2 C         140.2981  141.0401  167.0009 C.ar    1  UNL1       -0.0009
      3 C         139.3587  140.1023  167.6995 C.ar    1  UNL1        0.0210
      4 C         138.3476  139.3263  166.9085 C.ar    1  UNL1        0.1397
      5 F         137.4082  138.3885  167.6070 F       1  UNL1       -0.2044
      6 C         138.2761  139.4882  165.4189 C.ar    1  UNL1        0.0587
      7 C         139.2155  140.4260  164.7204 C.ar    1  UNL1        0.1402
      8 F         139.1440  140.5879  163.2309 F       1  UNL1       -0.2044
      9 N         137.8677  144.3429  164.9453 N.pl3   1  UNL1       -0.3380
     10 C         139.2803  143.9211  164.6683 C.2     1  UNL1        0.1482
     11 N         139.7534  142.5616  165.0899 N.2     1  UNL1       -0.2484
     12 C         141.1660  142.1398  164.8129 C.3     1  UNL1        0.1351
     13 C         141.6391  140.7802  165.2345 C.3     1  UNL1        0.1687
     14 O         143.0517  140.3584  164.9575 O.3     1  UNL1       -0.3510
     15 C         143.9912  141.2963  164.2590 C.3     1  UNL1        0.1507
     16 C         143.5180  142.6558  163.8374 C.3     1  UNL1        0.0357
     17 C         142.1054  143.0776  164.1144 C.3     1  UNL1        0.0408
     18 C         141.6323  144.4371  163.6928 C.3     1  UNL1        0.0672
     19 S         140.2197  144.8589  163.9698 S.3     1  UNL1       -0.0807
     20 H         137.2511  143.7274  165.4037 H       1  UNL1        0.1442
     21 H         137.5571  145.2352  164.6686 H       1  UNL1        0.1442
     22 C         145.4038  140.8745  163.9820 C.3     1  UNL1        0.2225
     23 F         146.3575  141.8304  163.3290 F       1  UNL1       -0.2316
     24 C         139.4302  139.9405  169.1890 C.3     1  UNL1        0.0981
     25 N         139.1147  141.1009  170.0855 N.3     1  UNL1       -0.2866
     26 H         138.6384  140.7202  170.9033 H       1  UNL1        0.1238
     27 C         140.2204  141.9760  170.5968 C.3     1  UNL1        0.1734
     28 C         140.2102  143.4467  170.3019 C.3     1  UNL1        0.4118
     29 F         140.2000  144.9174  170.0070 F       1  UNL1       -0.1685
     30 F         141.3345  143.2590  169.3268 F       1  UNL1       -0.1685
     31 F         139.0859  143.6345  171.2770 F       1  UNL1       -0.1685
@<TRIPOS>BOND
     1     9    10    1
     2    10    11    2
     3    11    12    1
     4    12     1    1
     5     1     2   ar
     6     2     3   ar
     7     3    24    1
     8    24    25    1
     9    25    27    1
    10    27    28    1
    11    28    29    1
    12    28    30    1
    13    28    31    1
    14     3     4   ar
    15     4     5    1
    16     4     6   ar
    17     6     7   ar
    18     7     8    1
    19    12    13    1
    20    13    14    1
    21    14    15    1
    22    15    22    1
    23    22    23    1
    24    15    16    1
    25    17    16    1
    26    17    18    1
    27    18    19    1
    28    19    10    1
    29    17    12    1
    30     7     1   ar
    31     9    20    1
    32     9    21    1
    33    25    26    1
@<TRIPOS>MOLECULE
*****
 31 33 0 0 0
SMALL
GASTEIGER

@<TRIPOS>ATOM
      1 C         140.5199  139.8628  164.9576 C.ar    1  UNL1        0.0275
      2 C         139.4178  140.4870  164.1540 C.ar    1  UNL1       -0.0009
      3 C         138.7556  139.7074  163.0567 C.ar    1  UNL1        0.0210
      4 C         139.1955  138.3037  162.7632 C.ar    1  UNL1        0.1397
      5 F         138.5333  137.5242  161.6660 F       1  UNL1       -0.2044
      6 C         140.2976  137.6796  163.5669 C.ar    1  UNL1        0.0587
      7 C         140.9598  138.4591  164.6640 C.ar    1  UNL1        0.1402
      8 F         142.0619  137.8350  165.4677 F       1  UNL1       -0.2044
      9 N         138.1646  138.9845  168.0286 N.pl3   1  UNL1       -0.3380
     10 C         139.3912  139.7970  167.7364 C.2     1  UNL1        0.1482
     11 N         139.9555  139.8299  166.3470 N.2     1  UNL1       -0.2484
     12 C         141.1822  140.6423  166.0548 C.3     1  UNL1        0.1351
     13 C         141.7465  140.6752  164.6653 C.3     1  UNL1        0.1687
     14 O         142.9731  141.4876  164.3731 O.3     1  UNL1       -0.3510
     15 C         143.6354  142.2672  165.4704 C.3     1  UNL1        0.1507
     16 C         143.0710  142.2342  166.8597 C.3     1  UNL1        0.0357
     17 C         141.8444  141.4218  167.1519 C.3     1  UNL1        0.0408
     18 C         141.2800  141.3889  168.5413 C.3     1  UNL1        0.0672
     19 S         140.0534  140.5765  168.8335 S.3     1  UNL1       -0.0807
     20 H         137.7299  138.4729  167.3085 H       1  UNL1        0.1442
     21 H         137.7942  138.9629  168.9405 H       1  UNL1        0.1442
     22 C         144.8620  143.0796  165.1781 C.3     1  UNL1        0.2225
     23 F         145.2581  144.1968  166.0972 F       1  UNL1       -0.2316
     24 C         137.6535  140.3316  162.2531 C.3     1  UNL1        0.0981
     25 N         136.9710  141.5708  162.7517 N.3     1  UNL1       -0.2866
     26 H         136.8098  141.4369  163.7499 H       1  UNL1        0.1238
     27 C         137.6348  142.9069  162.5957 C.3     1  UNL1        0.1734
     28 C         137.7432  143.8322  163.7713 C.3     1  UNL1        0.4118
     29 F         137.8517  144.7576  164.9468 F       1  UNL1       -0.1685
     30 F         138.2520  144.9178  162.8698 F       1  UNL1       -0.1685
     31 F         137.2345  142.7467  164.6728 F       1  UNL1       -0.1685
@<TRIPOS>BOND
     1     9    10    1
     2    10    11    2
     3    11    12    1
     4    12     1    1
     5     1     2   ar
     6     2     3   ar
     7     3    24    1
     8    24    25    1
     9    25    27    1
    10    27    28    1
    11    28    29    1
    12    28    30    1
    13    28    31    1
    14     3     4   ar
    15     4     5    1
    16     4     6   ar
    17     6     7   ar
    18     7     8    1
    19    12    13    1
    20    13    14    1
    21    14    15    1
    22    15    22    1
    23    22    23    1
    24    15    16    1
    25    17    16    1
    26    17    18    1
    27    18    19    1
    28    19    10    1
    29    17    12    1
    30     7     1   ar
    31     9    20    1
    32     9    21    1
    33    25    26    1
@<TRIPOS>MOLECULE
*****
 31 33 0 0 0
SMALL
GASTEIGER

@<TRIPOS>ATOM
      1 C         141.0423  140.3880  166.5040 C.ar    1  UNL1        0.0275
      2 C         140.2768  140.5122  167.7879 C.ar    1  UNL1       -0.0009
      3 C         140.8404  139.9414  169.0555 C.ar    1  UNL1        0.0210
      4 C         142.1695  139.2462  169.0389 C.ar    1  UNL1        0.1397
      5 F         142.7332  138.6754  170.3064 F       1  UNL1       -0.2044
      6 C         142.9350  139.1220  167.7549 C.ar    1  UNL1        0.0587
      7 C         142.3714  139.6928  166.4875 C.ar    1  UNL1        0.1402
      8 F         143.1369  139.5685  165.2034 F       1  UNL1       -0.2044
      9 N         138.6458  137.4408  165.3546 N.pl3   1  UNL1       -0.3380
     10 C         139.0689  138.8038  164.8927 C.2     1  UNL1        0.1482
     11 N         140.0556  139.5959  165.6983 N.2     1  UNL1       -0.2484
     12 C         140.4787  140.9588  165.2365 C.3     1  UNL1        0.1351
     13 C         141.4654  141.7509  166.0422 C.3     1  UNL1        0.1687
     14 O         141.8885  143.1139  165.5803 O.3     1  UNL1       -0.3510
     15 C         141.3249  143.6848  164.3128 C.3     1  UNL1        0.1507
     16 C         140.3382  142.8927  163.5072 C.3     1  UNL1        0.0357
     17 C         139.9151  141.5297  163.9690 C.3     1  UNL1        0.0408
     18 C         138.9285  140.7376  163.1634 C.3     1  UNL1        0.0672
     19 S         138.5054  139.3746  163.6253 S.3     1  UNL1       -0.0807
     20 H         139.0157  137.0661  166.1864 H       1  UNL1        0.1442
     21 H         137.9982  136.9209  164.8258 H       1  UNL1        0.1442
     22 C         141.7480  145.0477  163.8510 C.3     1  UNL1        0.2225
     23 F         143.1323  145.5437  164.1471 F       1  UNL1       -0.2316
     24 C         140.0750  140.0657  170.3394 C.3     1  UNL1        0.0981
     25 N         140.6497  140.8487  171.4825 N.3     1  UNL1       -0.2866
     26 H         141.3660  140.2621  171.9105 H       1  UNL1        0.1238
     27 C         141.2783  142.1876  171.2334 C.3     1  UNL1        0.1734
     28 C         140.6763  143.1233  170.2275 C.3     1  UNL1        0.4118
     29 F         140.0743  144.0591  169.2215 F       1  UNL1       -0.1685
     30 F         141.9521  143.0966  169.4391 F       1  UNL1       -0.1685
     31 F         139.4005  143.1501  171.0158 F       1  UNL1       -0.1685
@<TRIPOS>BOND
     1     9    10    1
     2    10    11    2
     3    11    12    1
     4    12     1    1
     5     1     2   ar
     6     2     3   ar
     7     3    24    1
     8    24    25    1
     9    25    27    1
    10    27    28    1
    11    28    29    1
    12    28    30    1
    13    28    31    1
    14     3     4   ar
    15     4     5    1
    16     4     6   ar
    17     6     7   ar
    18     7     8    1
    19    12    13    1
    20    13    14    1
    21    14    15    1
    22    15    22    1
    23    22    23    1
    24    15    16    1
    25    17    16    1
    26    17    18    1
    27    18    19    1
    28    19    10    1
    29    17    12    1
    30     7     1   ar
    31     9    20    1
    32     9    21    1
    33    25    26    1
@<TRIPOS>MOLECULE
*****
 31 33 0 0 0
SMALL
GASTEIGER

@<TRIPOS>ATOM
      1 C         142.6020  141.0364  166.5524 C.ar    1  UNL1        0.0275
      2 C         142.9043  142.4185  166.0540 C.ar    1  UNL1       -0.0009
      3 C         143.9253  142.6197  164.9736 C.ar    1  UNL1        0.0210
      4 C         144.6440  141.4387  164.3917 C.ar    1  UNL1        0.1397
      5 F         145.6650  141.6398  163.3113 F       1  UNL1       -0.2044
      6 C         144.3418  140.0566  164.8901 C.ar    1  UNL1        0.0587
      7 C         143.3208  139.8555  165.9704 C.ar    1  UNL1        0.1402
      8 F         143.0185  138.4733  166.4689 F       1  UNL1       -0.2044
      9 N         144.4064  142.7846  169.6246 N.pl3   1  UNL1       -0.3380
     10 C         143.1243  142.0678  169.3207 C.2     1  UNL1        0.1482
     11 N         142.8632  141.5521  167.9366 N.2     1  UNL1       -0.2484
     12 C         141.5810  140.8353  167.6327 C.3     1  UNL1        0.1351
     13 C         141.3199  140.3196  166.2485 C.3     1  UNL1        0.1687
     14 O         140.0378  139.6028  165.9447 O.3     1  UNL1       -0.3510
     15 C         139.0168  139.4016  167.0251 C.3     1  UNL1        0.1507
     16 C         139.2779  139.9173  168.4092 C.3     1  UNL1        0.0357
     17 C         140.5600  140.6341  168.7130 C.3     1  UNL1        0.0408
     18 C         140.8212  141.1498  170.0972 C.3     1  UNL1        0.0672
     19 S         142.1033  141.8666  170.4010 S.3     1  UNL1       -0.0807
     20 H         145.0765  142.9166  168.9155 H       1  UNL1        0.1442
     21 H         144.5778  143.1230  170.5330 H       1  UNL1        0.1442
     22 C         137.7347  138.6848  166.7212 C.3     1  UNL1        0.2225
     23 F         137.6669  137.1903  166.8304 F       1  UNL1       -0.2316
     24 C         144.2275  144.0018  164.4752 C.3     1  UNL1        0.0981
     25 N         143.8262  144.4028  163.0866 N.3     1  UNL1       -0.2866
     26 H         144.3868  143.8423  162.4447 H       1  UNL1        0.1238
     27 C         142.3982  144.2639  162.6490 C.3     1  UNL1        0.1734
     28 C         141.2876  144.6554  163.5781 C.3     1  UNL1        0.4118
     29 F         140.1769  145.0469  164.5071 F       1  UNL1       -0.1685
     30 F         141.8433  146.0465  163.6561 F       1  UNL1       -0.1685
     31 F         140.7319  143.2643  163.5000 F       1  UNL1       -0.1685
@<TRIPOS>BOND
     1     9    10    1
     2    10    11    2
     3    11    12    1
     4    12     1    1
     5     1     2   ar
     6     2     3   ar
     7     3    24    1
     8    24    25    1
     9    25    27    1
    10    27    28    1
    11    28    29    1
    12    28    30    1
    13    28    31    1
    14     3     4   ar
    15     4     5    1
    16     4     6   ar
    17     6     7   ar
    18     7     8    1
    19    12    13    1
    20    13    14    1
    21    14    15    1
    22    15    22    1
    23    22    23    1
    24    15    16    1
    25    17    16    1
    26    17    18    1
    27    18    19    1
    28    19    10    1
    29    17    12    1
    30     7     1   ar
    31     9    20    1
    32     9    21    1
    33    25    26    1
@<TRIPOS>MOLECULE
*****
 31 33 0 0 0
SMALL
GASTEIGER

@<TRIPOS>ATOM
      1 C         139.5462  142.6538  164.2937 C.ar    1  UNL1        0.0275
      2 C         140.7670  142.8844  163.4532 C.ar    1  UNL1       -0.0009
      3 C         140.7597  143.9486  162.3961 C.ar    1  UNL1        0.0210
      4 C         139.5317  144.7822  162.1796 C.ar    1  UNL1        0.1397
      5 F         139.5244  145.8464  161.1225 F       1  UNL1       -0.2044
      6 C         138.3108  144.5516  163.0201 C.ar    1  UNL1        0.0587
      7 C         138.3181  143.4874  164.0771 C.ar    1  UNL1        0.1402
      8 F         137.0973  143.2568  164.9177 F       1  UNL1       -0.2044
      9 N         138.2233  139.5347  162.2270 N.pl3   1  UNL1       -0.3380
     10 C         138.6691  139.8649  163.6206 C.2     1  UNL1        0.1482
     11 N         139.1076  141.2593  163.9572 N.2     1  UNL1       -0.2484
     12 C         139.5535  141.5895  165.3508 C.3     1  UNL1        0.1351
     13 C         139.9920  142.9840  165.6873 C.3     1  UNL1        0.1687
     14 O         140.4379  143.3142  167.0809 O.3     1  UNL1       -0.3510
     15 C         140.4451  142.2500  168.1380 C.3     1  UNL1        0.1507
     16 C         140.0066  140.8556  167.8015 C.3     1  UNL1        0.0357
     17 C         139.5607  140.5253  166.4079 C.3     1  UNL1        0.0408
     18 C         139.1222  139.1310  166.0713 C.3     1  UNL1        0.0672
     19 S         138.6764  138.8007  164.6777 S.3     1  UNL1       -0.0807
     20 H         138.2185  140.2332  161.5332 H       1  UNL1        0.1442
     21 H         137.9354  138.6195  162.0061 H       1  UNL1        0.1442
     22 C         140.8910  142.5802  169.5317 C.3     1  UNL1        0.2225
     23 F         140.9217  144.0078  169.9908 F       1  UNL1       -0.2316
     24 C         141.9805  144.1792  161.5556 C.3     1  UNL1        0.0981
     25 N         143.1829  144.8524  162.1482 N.3     1  UNL1       -0.2866
     26 H         142.8404  145.4797  162.8759 H       1  UNL1        0.1238
     27 C         144.2753  144.0298  162.7645 C.3     1  UNL1        0.1734
     28 C         144.3368  143.8595  164.2535 C.3     1  UNL1        0.4118
     29 F         144.3983  143.6892  165.7426 F       1  UNL1       -0.1685
     30 F         143.4978  145.0905  164.4290 F       1  UNL1       -0.1685
     31 F         145.1759  142.6286  164.0781 F       1  UNL1       -0.1685
@<TRIPOS>BOND
     1     9    10    1
     2    10    11    2
     3    11    12    1
     4    12     1    1
     5     1     2   ar
     6     2     3   ar
     7     3    24    1
     8    24    25    1
     9    25    27    1
    10    27    28    1
    11    28    29    1
    12    28    30    1
    13    28    31    1
    14     3     4   ar
    15     4     5    1
    16     4     6   ar
    17     6     7   ar
    18     7     8    1
    19    12    13    1
    20    13    14    1
    21    14    15    1
    22    15    22    1
    23    22    23    1
    24    15    16    1
    25    17    16    1
    26    17    18    1
    27    18    19    1
    28    19    10    1
    29    17    12    1
    30     7     1   ar
    31     9    20    1
    32     9    21    1
    33    25    26    1
@<TRIPOS>MOLECULE
*****
 31 33 0 0 0
SMALL
GASTEIGER

@<TRIPOS>ATOM
      1 C         139.9081  141.5122  163.5082 C.ar    1  UNL1        0.0275
      2 C         140.8550  142.2303  162.5930 C.ar    1  UNL1       -0.0009
      3 C         140.6565  143.6886  162.3025 C.ar    1  UNL1        0.0210
      4 C         139.5110  144.4285  162.9273 C.ar    1  UNL1        0.1397
      5 F         139.3124  145.8867  162.6368 F       1  UNL1       -0.2044
      6 C         138.5640  143.7103  163.8425 C.ar    1  UNL1        0.0587
      7 C         138.7626  142.2522  164.1329 C.ar    1  UNL1        0.1402
      8 F         137.8156  141.5340  165.0481 F       1  UNL1       -0.2044
      9 N         137.2258  139.8905  161.0739 N.pl3   1  UNL1       -0.3380
     10 C         138.2523  139.4590  162.0790 C.2     1  UNL1        0.1482
     11 N         139.0802  140.4855  162.7936 N.2     1  UNL1       -0.2484
     12 C         140.1066  140.0540  163.7986 C.3     1  UNL1        0.1351
     13 C         140.9345  141.0807  164.5132 C.3     1  UNL1        0.1687
     14 O         141.9610  140.6491  165.5183 O.3     1  UNL1       -0.3510
     15 C         142.1595  139.1909  165.8088 C.3     1  UNL1        0.1507
     16 C         141.3316  138.1643  165.0942 C.3     1  UNL1        0.0357
     17 C         140.3052  138.5959  164.0891 C.3     1  UNL1        0.0408
     18 C         139.4773  137.5693  163.3745 C.3     1  UNL1        0.0672
     19 S         138.4508  138.0008  162.3695 S.3     1  UNL1       -0.0807
     20 H         137.0955  140.8475  160.8833 H       1  UNL1        0.1442
     21 H         136.6824  139.2167  160.6049 H       1  UNL1        0.1442
     22 C         143.1860  138.7594  166.8138 C.3     1  UNL1        0.2225
     23 F         144.0066  137.5284  166.5665 F       1  UNL1       -0.2316
     24 C         141.6034  144.4067  161.3874 C.3     1  UNL1        0.0981
     25 N         142.8023  145.1104  161.9508 N.3     1  UNL1       -0.2866
     26 H         142.6420  146.1101  161.8272 H       1  UNL1        0.1238
     27 C         143.1848  144.9076  163.3870 C.3     1  UNL1        0.1734
     28 C         144.0913  143.7752  163.7690 C.3     1  UNL1        0.4118
     29 F         144.9977  142.6428  164.1510 F       1  UNL1       -0.1685
     30 F         143.3676  143.6367  165.0756 F       1  UNL1       -0.1685
     31 F         144.8149  143.9137  162.4624 F       1  UNL1       -0.1685
@<TRIPOS>BOND
     1     9    10    1
     2    10    11    2
     3    11    12    1
     4    12     1    1
     5     1     2   ar
     6     2     3   ar
     7     3    24    1
     8    24    25    1
     9    25    27    1
    10    27    28    1
    11    28    29    1
    12    28    30    1
    13    28    31    1
    14     3     4   ar
    15     4     5    1
    16     4     6   ar
    17     6     7   ar
    18     7     8    1
    19    12    13    1
    20    13    14    1
    21    14    15    1
    22    15    22    1
    23    22    23    1
    24    15    16    1
    25    17    16    1
    26    17    18    1
    27    18    19    1
    28    19    10    1
    29    17    12    1
    30     7     1   ar
    31     9    20    1
    32     9    21    1
    33    25    26    1
