@<TRIPOS>MOLECULE
*****
 34 36 0 0 0
SMALL
GASTEIGER

@<TRIPOS>ATOM
      1 C         140.7529  140.8624  162.9980 C.3     1  UNL1        0.0401
      2 C         140.1778  141.6905  161.8874 C.3     1  UNL1        0.0765
      3 N         141.2996  142.4570  161.2518 N.3     1  UNL1       -0.2723
      4 C         142.5681  142.1027  161.9697 C.3     1  UNL1        0.0729
      5 C         142.2302  141.1172  163.0489 C.3     1  UNL1        0.0305
      6 C         138.4507  138.0991  165.7024 C.ar    1  UNL1        0.1387
      7 C         138.3551  139.5841  165.8905 C.ar    1  UNL1        0.0366
      8 C         139.1225  140.5052  164.9890 C.ar    1  UNL1       -0.0011
      9 C         139.9855  139.9413  163.8995 C.ar    1  UNL1       -0.0209
     10 C         140.0811  138.4562  163.7114 C.ar    1  UNL1       -0.0011
     11 C         139.3137  137.5351  164.6128 C.ar    1  UNL1        0.0366
     12 C         136.8614  137.7395  167.7260 C.3     1  UNL1        0.2525
     13 O         137.6833  137.1779  166.6038 O.3     1  UNL1       -0.4714
     14 C         141.1748  143.4105  160.1006 C.3     1  UNL1        0.0736
     15 C         141.2283  144.8898  160.3428 C.3     1  UNL1        0.0364
     16 C         140.3418  145.5124  161.3804 C.3     1  UNL1        0.0969
     17 N         140.5377  145.1816  162.8304 N.3     1  UNL1       -0.1579
     18 C         141.8769  145.3902  163.4729 C.3     1  UNL1        0.1145
     19 S         139.3943  144.6424  163.6377 S.O2    1  UNL1        0.0457
     20 C         138.2509  144.1032  164.4451 C.3     1  UNL1        0.1960
     21 O         138.4275  145.1613  162.6150 O.2     1  UNL1       -0.1572
     22 O         140.3612  144.1235  164.6604 O.2     1  UNL1       -0.1572
     23 C         143.1995  140.4956  164.0101 C.3     1  UNL1        0.0871
     24 C         142.9773  140.6244  165.4879 C.2     1  UNL1        0.2262
     25 O         143.2417  139.4560  166.3908 O.2     1  UNL1       -0.2748
     26 N         142.4907  141.9215  166.0630 N.am    1  UNL1       -0.2839
     27 H         142.3172  142.6883  165.4705 H       1  UNL1        0.1549
     28 C         142.2684  142.0502  167.5408 C.ar    1  UNL1        0.0511
     29 C         143.4135  142.4023  168.4436 C.ar    1  UNL1        0.0147
     30 C         143.1912  142.5310  169.9214 C.ar    1  UNL1        0.0021
     31 C         141.8240  142.3076  170.4966 C.ar    1  UNL1        0.0115
     32 C         140.6790  141.9555  169.5938 C.ar    1  UNL1        0.0589
     33 CL        139.3117  141.7321  170.1690 Cl      1  UNL1       -0.0822
     34 C         140.9013  141.8268  168.1160 C.ar    1  UNL1        0.0261
@<TRIPOS>BOND
     1    12    13    1
     2    13     6    1
     3     6     7   ar
     4     7     8   ar
     5     8     9   ar
     6     1     9    1
     7     1     2    1
     8     2     3    1
     9     3    14    1
    10    14    15    1
    11    15    16    1
    12    16    17    1
    13    17    18    1
    14    17    19    1
    15    19    20    1
    16    19    21    2
    17    19    22    2
    18     3     4    1
    19     4     5    1
    20     5    23    1
    21    23    24    1
    22    24    25    2
    23    24    26   am
    24    26    28    1
    25    28    29   ar
    26    29    30   ar
    27    30    31   ar
    28    31    32   ar
    29    32    33    1
    30    32    34   ar
    31     9    10   ar
    32    10    11   ar
    33    11     6   ar
    34     5     1    1
    35    34    28   ar
    36    26    27    1
@<TRIPOS>MOLECULE
*****
 34 36 0 0 0
SMALL
GASTEIGER

@<TRIPOS>ATOM
      1 C         141.6997  139.5177  163.4320 C.3     1  UNL1        0.0401
      2 C         141.5950  140.1301  162.0667 C.3     1  UNL1        0.0765
      3 N         142.9823  140.4497  161.5943 N.3     1  UNL1       -0.2723
      4 C         143.9445  140.0348  162.6676 C.3     1  UNL1        0.0729
      5 C         143.1518  139.4588  163.8033 C.3     1  UNL1        0.0305
      6 C         138.2614  138.1051  165.9682 C.ar    1  UNL1        0.1387
      7 C         138.5709  139.5696  165.8728 C.ar    1  UNL1        0.0366
      8 C         139.7170  140.0405  165.0274 C.ar    1  UNL1       -0.0011
      9 C         140.5536  139.0468  164.2774 C.ar    1  UNL1       -0.0209
     10 C         140.2442  137.5822  164.3728 C.ar    1  UNL1       -0.0011
     11 C         139.0981  137.1113  165.2182 C.ar    1  UNL1        0.0366
     12 C         136.9294  138.1822  168.1975 C.3     1  UNL1        0.2525
     13 O         137.1153  137.6342  166.8137 O.3     1  UNL1       -0.4714
     14 C         143.3439  141.0745  160.2794 C.3     1  UNL1        0.0736
     15 C         142.7332  142.3845  159.8784 C.3     1  UNL1        0.0364
     16 C         142.9660  143.6078  160.7146 C.3     1  UNL1        0.0969
     17 N         142.3678  143.7032  162.0869 N.3     1  UNL1       -0.1579
     18 C         140.8780  143.7554  162.2536 C.3     1  UNL1        0.1145
     19 S         143.2593  143.7465  163.2923 S.O2    1  UNL1        0.0457
     20 C         144.1509  143.7898  164.4978 C.3     1  UNL1        0.1960
     21 O         142.2396  142.9730  164.0744 O.2     1  UNL1       -0.1572
     22 O         144.2791  144.5201  162.5102 O.2     1  UNL1       -0.1572
     23 C         143.7128  138.9187  165.0854 C.3     1  UNL1        0.0871
     24 C         143.2453  139.4699  166.3997 C.2     1  UNL1        0.2262
     25 O         143.2465  138.5992  167.6212 O.2     1  UNL1       -0.2748
     26 N         142.7765  140.8917  166.4927 N.am    1  UNL1       -0.2839
     27 H         142.7756  141.4632  165.6910 H       1  UNL1        0.1549
     28 C         142.3089  141.4428  167.8071 C.ar    1  UNL1        0.0511
     29 C         143.2078  142.3380  168.6074 C.ar    1  UNL1        0.0147
     30 C         142.7403  142.8891  169.9218 C.ar    1  UNL1        0.0021
     31 C         141.3738  142.5451  170.4360 C.ar    1  UNL1        0.0115
     32 C         140.4749  141.6499  169.6356 C.ar    1  UNL1        0.0589
     33 CL        139.1083  141.3058  170.1497 Cl      1  UNL1       -0.0822
     34 C         140.9425  141.0988  168.3212 C.ar    1  UNL1        0.0261
@<TRIPOS>BOND
     1    12    13    1
     2    13     6    1
     3     6     7   ar
     4     7     8   ar
     5     8     9   ar
     6     1     9    1
     7     1     2    1
     8     2     3    1
     9     3    14    1
    10    14    15    1
    11    15    16    1
    12    16    17    1
    13    17    18    1
    14    17    19    1
    15    19    20    1
    16    19    21    2
    17    19    22    2
    18     3     4    1
    19     4     5    1
    20     5    23    1
    21    23    24    1
    22    24    25    2
    23    24    26   am
    24    26    28    1
    25    28    29   ar
    26    29    30   ar
    27    30    31   ar
    28    31    32   ar
    29    32    33    1
    30    32    34   ar
    31     9    10   ar
    32    10    11   ar
    33    11     6   ar
    34     5     1    1
    35    34    28   ar
    36    26    27    1
@<TRIPOS>MOLECULE
*****
 34 36 0 0 0
SMALL
GASTEIGER

@<TRIPOS>ATOM
      1 C         142.9463  140.8640  166.6971 C.3     1  UNL1        0.0401
      2 C         142.9800  141.2615  168.1431 C.3     1  UNL1        0.0765
      3 N         142.9772  140.0090  168.9684 N.3     1  UNL1       -0.2723
      4 C         142.9416  138.8373  168.0325 C.3     1  UNL1        0.0729
      5 C         142.9226  139.3658  166.6288 C.3     1  UNL1        0.0305
      6 C         142.9206  143.6729  163.1816 C.ar    1  UNL1        0.1387
      7 C         141.6864  143.5065  164.0176 C.ar    1  UNL1        0.0366
      8 C         141.6950  142.5701  165.1894 C.ar    1  UNL1       -0.0011
      9 C         142.9377  141.8003  165.5253 C.ar    1  UNL1       -0.0209
     10 C         144.1720  141.9668  164.6893 C.ar    1  UNL1       -0.0011
     11 C         144.1634  142.9031  163.5174 C.ar    1  UNL1        0.0366
     12 C         141.9755  144.3675  160.8634 C.3     1  UNL1        0.2525
     13 O         142.9121  144.6093  162.0097 O.3     1  UNL1       -0.4714
     14 C         143.0050  139.9402  170.4666 C.3     1  UNL1        0.0736
     15 C         142.4295  141.0617  171.2796 C.3     1  UNL1        0.0364
     16 C         140.9619  141.0876  171.5888 C.3     1  UNL1        0.0969
     17 N         139.9911  141.6174  170.5752 N.3     1  UNL1       -0.1579
     18 C         139.5729  143.0572  170.6186 C.3     1  UNL1        0.1145
     19 S         139.4388  140.7074  169.5186 S.O2    1  UNL1        0.0457
     20 C         138.8865  139.7973  168.4619 C.3     1  UNL1        0.1960
     21 O         139.8841  141.6693  168.4573 O.2     1  UNL1       -0.1572
     22 O         138.9936  139.7454  170.5799 O.2     1  UNL1       -0.1572
     23 C         142.8861  138.5407  165.3766 C.3     1  UNL1        0.0871
     24 C         141.9034  138.8674  164.2915 C.2     1  UNL1        0.2262
     25 O         142.3833  139.0954  162.8887 O.2     1  UNL1       -0.2748
     26 N         140.4407  138.9660  164.6091 N.am    1  UNL1       -0.2839
     27 H         140.1257  138.8163  165.5297 H       1  UNL1        0.1549
     28 C         139.4580  139.2926  163.5239 C.ar    1  UNL1        0.0511
     29 C         138.7620  138.1882  162.7851 C.ar    1  UNL1        0.0147
     30 C         137.7793  138.5148  161.6999 C.ar    1  UNL1        0.0021
     31 C         137.4926  139.9458  161.3535 C.ar    1  UNL1        0.0115
     32 C         138.1886  141.0502  162.0923 C.ar    1  UNL1        0.0589
     33 CL        137.9019  142.4813  161.7460 Cl      1  UNL1       -0.0822
     34 C         139.1713  140.7236  163.1775 C.ar    1  UNL1        0.0261
@<TRIPOS>BOND
     1    12    13    1
     2    13     6    1
     3     6     7   ar
     4     7     8   ar
     5     8     9   ar
     6     1     9    1
     7     1     2    1
     8     2     3    1
     9     3    14    1
    10    14    15    1
    11    15    16    1
    12    16    17    1
    13    17    18    1
    14    17    19    1
    15    19    20    1
    16    19    21    2
    17    19    22    2
    18     3     4    1
    19     4     5    1
    20     5    23    1
    21    23    24    1
    22    24    25    2
    23    24    26   am
    24    26    28    1
    25    28    29   ar
    26    29    30   ar
    27    30    31   ar
    28    31    32   ar
    29    32    33    1
    30    32    34   ar
    31     9    10   ar
    32    10    11   ar
    33    11     6   ar
    34     5     1    1
    35    34    28   ar
    36    26    27    1
@<TRIPOS>MOLECULE
*****
 34 36 0 0 0
SMALL
GASTEIGER

@<TRIPOS>ATOM
      1 C         141.0365  139.2407  166.5915 C.3     1  UNL1        0.0401
      2 C         141.8240  139.1911  167.8672 C.3     1  UNL1        0.0765
      3 N         140.9290  139.6441  168.9824 N.3     1  UNL1       -0.2723
      4 C         139.5883  139.9737  168.3960 C.3     1  UNL1        0.0729
      5 C         139.6547  139.7244  166.9183 C.3     1  UNL1        0.0305
      6 C         142.5529  138.1329  162.5021 C.ar    1  UNL1        0.1387
      7 C         141.4390  137.3467  163.1273 C.ar    1  UNL1        0.0366
      8 C         140.9335  137.7159  164.4904 C.ar    1  UNL1       -0.0011
      9 C         141.5420  138.8714  165.2284 C.ar    1  UNL1       -0.0209
     10 C         142.6559  139.6577  164.6031 C.ar    1  UNL1       -0.0011
     11 C         143.1614  139.2884  163.2400 C.ar    1  UNL1        0.0366
     12 C         143.3398  138.8351  160.1277 C.3     1  UNL1        0.2525
     13 O         143.0584  137.7636  161.1390 O.3     1  UNL1       -0.4714
     14 C         141.3081  139.7491  170.4299 C.3     1  UNL1        0.0736
     15 C         141.2769  141.0813  171.1186 C.3     1  UNL1        0.0364
     16 C         142.0558  142.2340  170.5577 C.3     1  UNL1        0.0969
     17 N         141.6529  142.8451  169.2483 N.3     1  UNL1       -0.1579
     18 C         140.3833  143.6378  169.1498 C.3     1  UNL1        0.1145
     19 S         142.5195  142.6634  168.0376 S.O2    1  UNL1        0.0457
     20 C         143.3862  142.4817  166.8269 C.3     1  UNL1        0.1960
     21 O         143.7345  142.6090  168.9154 O.2     1  UNL1       -0.1572
     22 O         141.3044  142.7178  167.1598 O.2     1  UNL1       -0.1572
     23 C         138.5358  139.9237  165.9394 C.3     1  UNL1        0.0871
     24 C         138.6578  140.9597  164.8616 C.2     1  UNL1        0.2262
     25 O         137.7227  140.9359  163.6890 O.2     1  UNL1       -0.2748
     26 N         139.7149  142.0197  164.9564 N.am    1  UNL1       -0.2839
     27 H         140.3287  142.0355  165.7260 H       1  UNL1        0.1549
     28 C         139.8369  143.0558  163.8786 C.ar    1  UNL1        0.0511
     29 C         138.8298  144.1635  163.7856 C.ar    1  UNL1        0.0147
     30 C         138.9517  145.1996  162.7078 C.ar    1  UNL1        0.0021
     31 C         140.0808  145.1280  161.7229 C.ar    1  UNL1        0.0115
     32 C         141.0879  144.0202  161.8158 C.ar    1  UNL1        0.0589
     33 CL        142.2170  143.9486  160.8309 Cl      1  UNL1       -0.0822
     34 C         140.9659  142.9842  162.8936 C.ar    1  UNL1        0.0261
@<TRIPOS>BOND
     1    12    13    1
     2    13     6    1
     3     6     7   ar
     4     7     8   ar
     5     8     9   ar
     6     1     9    1
     7     1     2    1
     8     2     3    1
     9     3    14    1
    10    14    15    1
    11    15    16    1
    12    16    17    1
    13    17    18    1
    14    17    19    1
    15    19    20    1
    16    19    21    2
    17    19    22    2
    18     3     4    1
    19     4     5    1
    20     5    23    1
    21    23    24    1
    22    24    25    2
    23    24    26   am
    24    26    28    1
    25    28    29   ar
    26    29    30   ar
    27    30    31   ar
    28    31    32   ar
    29    32    33    1
    30    32    34   ar
    31     9    10   ar
    32    10    11   ar
    33    11     6   ar
    34     5     1    1
    35    34    28   ar
    36    26    27    1
@<TRIPOS>MOLECULE
*****
 34 36 0 0 0
SMALL
GASTEIGER

@<TRIPOS>ATOM
      1 C         141.7164  139.0728  162.8685 C.3     1  UNL1        0.0401
      2 C         141.5882  139.0607  161.3740 C.3     1  UNL1        0.0765
      3 N         142.9654  139.1702  160.7897 N.3     1  UNL1       -0.2723
      4 C         143.9447  139.2499  161.9231 C.3     1  UNL1        0.0729
      5 C         143.1728  139.1898  163.2078 C.3     1  UNL1        0.0305
      6 C         138.3268  138.8054  165.8163 C.ar    1  UNL1        0.1387
      7 C         138.6613  140.1196  165.1752 C.ar    1  UNL1        0.0366
      8 C         139.7911  140.2087  164.1926 C.ar    1  UNL1       -0.0011
      9 C         140.5865  138.9837  163.8511 C.ar    1  UNL1       -0.0209
     10 C         140.2521  137.6695  164.4922 C.ar    1  UNL1       -0.0011
     11 C         139.1222  137.5804  165.4748 C.ar    1  UNL1        0.0366
     12 C         136.9453  137.4356  167.5382 C.3     1  UNL1        0.2525
     13 O         137.1970  138.7162  166.7989 O.3     1  UNL1       -0.4714
     14 C         143.3037  139.1954  159.3286 C.3     1  UNL1        0.0736
     15 C         143.7218  140.4805  158.6777 C.3     1  UNL1        0.0364
     16 C         142.9727  141.7470  158.9688 C.3     1  UNL1        0.0969
     17 N         143.3639  142.5972  160.1412 N.3     1  UNL1       -0.1579
     18 C         144.7799  142.5865  160.6360 C.3     1  UNL1        0.1145
     19 S         142.3391  143.4578  160.8186 S.O2    1  UNL1        0.0457
     20 C         141.3143  144.3185  161.4961 C.3     1  UNL1        0.1960
     21 O         142.4254  144.4462  159.6937 O.2     1  UNL1       -0.1572
     22 O         142.2529  142.4695  161.9437 O.2     1  UNL1       -0.1572
     23 C         143.7551  139.2381  164.5893 C.3     1  UNL1        0.0871
     24 C         143.1134  140.0893  165.6444 C.2     1  UNL1        0.2262
     25 O         142.8719  141.5474  165.3875 O.2     1  UNL1       -0.2748
     26 N         142.7129  139.4827  166.9566 N.am    1  UNL1       -0.2839
     27 H         142.8713  138.5258  167.1252 H       1  UNL1        0.1549
     28 C         142.0711  140.3341  168.0117 C.ar    1  UNL1        0.0511
     29 C         140.6086  140.1842  168.3093 C.ar    1  UNL1        0.0147
     30 C         139.9668  141.0355  169.3644 C.ar    1  UNL1        0.0021
     31 C         140.7875  142.0368  170.1219 C.ar    1  UNL1        0.0115
     32 C         142.2500  142.1867  169.8243 C.ar    1  UNL1        0.0589
     33 CL        143.0708  143.1881  170.5819 Cl      1  UNL1       -0.0822
     34 C         142.8918  141.3354  168.7692 C.ar    1  UNL1        0.0261
@<TRIPOS>BOND
     1    12    13    1
     2    13     6    1
     3     6     7   ar
     4     7     8   ar
     5     8     9   ar
     6     1     9    1
     7     1     2    1
     8     2     3    1
     9     3    14    1
    10    14    15    1
    11    15    16    1
    12    16    17    1
    13    17    18    1
    14    17    19    1
    15    19    20    1
    16    19    21    2
    17    19    22    2
    18     3     4    1
    19     4     5    1
    20     5    23    1
    21    23    24    1
    22    24    25    2
    23    24    26   am
    24    26    28    1
    25    28    29   ar
    26    29    30   ar
    27    30    31   ar
    28    31    32   ar
    29    32    33    1
    30    32    34   ar
    31     9    10   ar
    32    10    11   ar
    33    11     6   ar
    34     5     1    1
    35    34    28   ar
    36    26    27    1
@<TRIPOS>MOLECULE
*****
 34 36 0 0 0
SMALL
GASTEIGER

@<TRIPOS>ATOM
      1 C         139.9584  141.6742  165.9751 C.3     1  UNL1        0.0401
      2 C         139.8140  143.1544  165.7796 C.3     1  UNL1        0.0765
      3 N         138.9707  143.3809  164.5599 N.3     1  UNL1       -0.2723
      4 C         138.5939  142.0406  164.0016 C.3     1  UNL1        0.0729
      5 C         139.2043  140.9859  164.8762 C.3     1  UNL1        0.0305
      6 C         142.2512  139.6536  169.2781 C.ar    1  UNL1        0.1387
      7 C         142.9041  139.8919  167.9489 C.ar    1  UNL1        0.0366
      8 C         142.1398  140.5655  166.8479 C.ar    1  UNL1       -0.0011
      9 C         140.7226  141.0007  167.0761 C.ar    1  UNL1       -0.0209
     10 C         140.0697  140.7623  168.4053 C.ar    1  UNL1       -0.0011
     11 C         140.8340  140.0888  169.5063 C.ar    1  UNL1        0.0366
     12 C         143.3265  137.5154  170.2891 C.3     1  UNL1        0.2525
     13 O         143.0154  138.9800  170.3792 O.3     1  UNL1       -0.4714
     14 C         138.5739  144.7136  163.9974 C.3     1  UNL1        0.0736
     15 C         139.1028  145.1523  162.6641 C.3     1  UNL1        0.0364
     16 C         140.4908  145.7104  162.5546 C.3     1  UNL1        0.0969
     17 N         141.6751  144.7914  162.6096 N.3     1  UNL1       -0.1579
     18 C         142.6871  144.9371  163.7072 C.3     1  UNL1        0.1145
     19 S         141.8474  143.7269  161.5670 S.O2    1  UNL1        0.0457
     20 C         142.0197  142.6623  160.5244 C.3     1  UNL1        0.1960
     21 O         141.9955  144.7834  160.5127 O.2     1  UNL1       -0.1572
     22 O         141.6993  142.6704  162.6214 O.2     1  UNL1       -0.1572
     23 C         139.0821  139.5031  164.6854 C.3     1  UNL1        0.0871
     24 C         139.7458  138.8403  163.5149 C.2     1  UNL1        0.2262
     25 O         139.3353  137.4572  163.1042 O.2     1  UNL1       -0.2748
     26 N         140.8201  139.5604  162.7551 N.am    1  UNL1       -0.2839
     27 H         141.0896  140.4681  163.0246 H       1  UNL1        0.1549
     28 C         141.4838  138.8975  161.5846 C.ar    1  UNL1        0.0511
     29 C         142.7464  138.1126  161.7839 C.ar    1  UNL1        0.0147
     30 C         143.4101  137.4497  160.6134 C.ar    1  UNL1        0.0021
     31 C         142.8112  137.5716  159.2436 C.ar    1  UNL1        0.0115
     32 C         141.5485  138.3564  159.0443 C.ar    1  UNL1        0.0589
     33 CL        140.9495  138.4784  157.6744 Cl      1  UNL1       -0.0822
     34 C         140.8849  139.0194  160.2148 C.ar    1  UNL1        0.0261
@<TRIPOS>BOND
     1    12    13    1
     2    13     6    1
     3     6     7   ar
     4     7     8   ar
     5     8     9   ar
     6     1     9    1
     7     1     2    1
     8     2     3    1
     9     3    14    1
    10    14    15    1
    11    15    16    1
    12    16    17    1
    13    17    18    1
    14    17    19    1
    15    19    20    1
    16    19    21    2
    17    19    22    2
    18     3     4    1
    19     4     5    1
    20     5    23    1
    21    23    24    1
    22    24    25    2
    23    24    26   am
    24    26    28    1
    25    28    29   ar
    26    29    30   ar
    27    30    31   ar
    28    31    32   ar
    29    32    33    1
    30    32    34   ar
    31     9    10   ar
    32    10    11   ar
    33    11     6   ar
    34     5     1    1
    35    34    28   ar
    36    26    27    1
@<TRIPOS>MOLECULE
*****
 34 36 0 0 0
SMALL
GASTEIGER

@<TRIPOS>ATOM
      1 C         142.0269  138.2113  160.8746 C.3     1  UNL1        0.0401
      2 C         142.9532  137.7222  159.8010 C.3     1  UNL1        0.0765
      3 N         142.2344  137.8210  158.4882 N.3     1  UNL1       -0.2723
      4 C         140.8638  138.3711  158.7504 C.3     1  UNL1        0.0729
      5 C         140.7356  138.6123  160.2253 C.3     1  UNL1        0.0305
      6 C         142.9585  138.4361  165.2714 C.ar    1  UNL1        0.1387
      7 C         141.7694  137.6553  164.7957 C.ar    1  UNL1        0.0366
      8 C         141.4589  137.5804  163.3301 C.ar    1  UNL1       -0.0011
      9 C         142.3374  138.2862  162.3402 C.ar    1  UNL1       -0.0209
     10 C         143.5265  139.0670  162.8160 C.ar    1  UNL1       -0.0011
     11 C         143.8370  139.1420  164.2816 C.ar    1  UNL1        0.0366
     12 C         142.4945  139.4429  167.6211 C.3     1  UNL1        0.2525
     13 O         143.2690  138.5110  166.7370 O.3     1  UNL1       -0.4714
     14 C         142.7888  137.4370  157.1483 C.3     1  UNL1        0.0736
     15 C         142.5341  136.0658  156.5963 C.3     1  UNL1        0.0364
     16 C         143.5739  134.9942  156.7404 C.3     1  UNL1        0.0969
     17 N         143.1944  133.5531  156.5691 N.3     1  UNL1       -0.1579
     18 C         141.9559  133.1894  155.8049 C.3     1  UNL1        0.1145
     19 S         144.0533  132.4758  157.1620 S.O2    1  UNL1        0.0457
     20 C         144.9123  131.3985  157.7550 C.3     1  UNL1        0.1960
     21 O         143.5734  131.5162  156.1138 O.2     1  UNL1       -0.1572
     22 O         144.5332  133.4355  158.2102 O.2     1  UNL1       -0.1572
     23 C         139.5280  139.1587  160.9277 C.3     1  UNL1        0.0871
     24 C         139.6464  140.3908  161.7748 C.2     1  UNL1        0.2262
     25 O         140.6896  141.4212  161.4584 O.2     1  UNL1       -0.2748
     26 N         138.7218  140.5926  162.9386 N.am    1  UNL1       -0.2839
     27 H         138.0371  139.9164  163.1464 H       1  UNL1        0.1549
     28 C         138.8403  141.8248  163.7858 C.ar    1  UNL1        0.0511
     29 C         138.1544  143.0915  163.3674 C.ar    1  UNL1        0.0147
     30 C         138.2729  144.3236  164.2146 C.ar    1  UNL1        0.0021
     31 C         139.0774  144.2892  165.4801 C.ar    1  UNL1        0.0115
     32 C         139.7633  143.0225  165.8985 C.ar    1  UNL1        0.0589
     33 CL        140.5678  142.9880  167.1641 Cl      1  UNL1       -0.0822
     34 C         139.6448  141.7903  165.0513 C.ar    1  UNL1        0.0261
@<TRIPOS>BOND
     1    12    13    1
     2    13     6    1
     3     6     7   ar
     4     7     8   ar
     5     8     9   ar
     6     1     9    1
     7     1     2    1
     8     2     3    1
     9     3    14    1
    10    14    15    1
    11    15    16    1
    12    16    17    1
    13    17    18    1
    14    17    19    1
    15    19    20    1
    16    19    21    2
    17    19    22    2
    18     3     4    1
    19     4     5    1
    20     5    23    1
    21    23    24    1
    22    24    25    2
    23    24    26   am
    24    26    28    1
    25    28    29   ar
    26    29    30   ar
    27    30    31   ar
    28    31    32   ar
    29    32    33    1
    30    32    34   ar
    31     9    10   ar
    32    10    11   ar
    33    11     6   ar
    34     5     1    1
    35    34    28   ar
    36    26    27    1
@<TRIPOS>MOLECULE
*****
 34 36 0 0 0
SMALL
GASTEIGER

@<TRIPOS>ATOM
      1 C         141.9696  140.3801  162.9717 C.3     1  UNL1        0.0401
      2 C         141.7612  140.8815  161.5734 C.3     1  UNL1        0.0765
      3 N         143.0047  141.6060  161.1505 N.3     1  UNL1       -0.2723
      4 C         143.9817  141.5523  162.2875 C.3     1  UNL1        0.0729
      5 C         143.3420  140.7947  163.4130 C.3     1  UNL1        0.0305
      6 C         138.9994  138.0425  165.4137 C.ar    1  UNL1        0.1387
      7 C         138.8118  139.5174  165.2153 C.ar    1  UNL1        0.0366
      8 C         139.8019  140.2966  164.4013 C.ar    1  UNL1       -0.0011
      9 C         140.9796  139.6009  163.7857 C.ar    1  UNL1       -0.0209
     10 C         141.1672  138.1260  163.9841 C.ar    1  UNL1       -0.0011
     11 C         140.1771  137.3468  164.7981 C.ar    1  UNL1        0.0366
     12 C         137.2079  137.9508  167.2931 C.3     1  UNL1        0.2525
     13 O         138.0094  137.2633  166.2278 O.3     1  UNL1       -0.4714
     14 C         143.2314  142.2679  159.8237 C.3     1  UNL1        0.0736
     15 C         142.5331  143.5551  159.4987 C.3     1  UNL1        0.0364
     16 C         141.0944  143.5414  159.0744 C.3     1  UNL1        0.0969
     17 N         140.0086  143.6775  160.1005 N.3     1  UNL1       -0.1579
     18 C         138.9006  142.6681  160.1583 C.3     1  UNL1        0.1145
     19 S         140.0309  144.8230  161.0686 S.O2    1  UNL1        0.0457
     20 C         140.0532  145.9685  162.0368 C.3     1  UNL1        0.1960
     21 O         139.8101  145.7832  159.9376 O.2     1  UNL1       -0.1572
     22 O         140.2517  143.8627  162.1996 O.2     1  UNL1       -0.1572
     23 C         143.9652  140.5029  164.7458 C.3     1  UNL1        0.0871
     24 C         143.2733  140.9284  166.0067 C.2     1  UNL1        0.2262
     25 O         143.0409  142.3850  166.2798 O.2     1  UNL1       -0.2748
     26 N         142.8136  139.8975  166.9946 N.am    1  UNL1       -0.2839
     27 H         142.9661  138.9416  166.8154 H       1  UNL1        0.1549
     28 C         142.1216  140.3232  168.2555 C.ar    1  UNL1        0.0511
     29 C         142.8946  141.0168  169.3378 C.ar    1  UNL1        0.0147
     30 C         142.2026  141.4424  170.5988 C.ar    1  UNL1        0.0021
     31 C         140.7376  141.1746  170.7775 C.ar    1  UNL1        0.0115
     32 C         139.9646  140.4810  169.6951 C.ar    1  UNL1        0.0589
     33 CL        138.4995  140.2131  169.8738 Cl      1  UNL1       -0.0822
     34 C         140.6566  140.0553  168.4342 C.ar    1  UNL1        0.0261
@<TRIPOS>BOND
     1    12    13    1
     2    13     6    1
     3     6     7   ar
     4     7     8   ar
     5     8     9   ar
     6     1     9    1
     7     1     2    1
     8     2     3    1
     9     3    14    1
    10    14    15    1
    11    15    16    1
    12    16    17    1
    13    17    18    1
    14    17    19    1
    15    19    20    1
    16    19    21    2
    17    19    22    2
    18     3     4    1
    19     4     5    1
    20     5    23    1
    21    23    24    1
    22    24    25    2
    23    24    26   am
    24    26    28    1
    25    28    29   ar
    26    29    30   ar
    27    30    31   ar
    28    31    32   ar
    29    32    33    1
    30    32    34   ar
    31     9    10   ar
    32    10    11   ar
    33    11     6   ar
    34     5     1    1
    35    34    28   ar
    36    26    27    1
@<TRIPOS>MOLECULE
*****
 34 36 0 0 0
SMALL
GASTEIGER

@<TRIPOS>ATOM
      1 C         142.8226  140.7777  162.0784 C.3     1  UNL1        0.0401
      2 C         142.6463  141.0704  160.6179 C.3     1  UNL1        0.0765
      3 N         143.8225  141.8824  160.1625 N.3     1  UNL1       -0.2723
      4 C         144.7257  142.0915  161.3417 C.3     1  UNL1        0.0729
      5 C         144.1077  141.4088  162.5258 C.3     1  UNL1        0.0305
      6 C         139.9928  138.4204  164.6640 C.ar    1  UNL1        0.1387
      7 C         141.2441  137.7782  164.1428 C.ar    1  UNL1        0.0366
      8 C         142.1874  138.5640  163.2809 C.ar    1  UNL1       -0.0011
      9 C         141.8793  139.9919  162.9403 C.ar    1  UNL1       -0.0209
     10 C         140.6279  140.6340  163.4615 C.ar    1  UNL1       -0.0011
     11 C         139.6847  139.8483  164.3233 C.ar    1  UNL1        0.0366
     12 C         138.0378  138.3471  166.3736 C.3     1  UNL1        0.2525
     13 O         139.0495  137.6346  165.5258 O.3     1  UNL1       -0.4714
     14 C         144.0547  142.3951  158.7722 C.3     1  UNL1        0.0736
     15 C         143.0126  143.2393  158.1004 C.3     1  UNL1        0.0364
     16 C         142.3757  144.3764  158.8427 C.3     1  UNL1        0.0969
     17 N         141.0437  144.1866  159.5062 N.3     1  UNL1       -0.1579
     18 C         140.0801  143.1669  158.9754 C.3     1  UNL1        0.1145
     19 S         140.6756  145.0163  160.7002 S.O2    1  UNL1        0.0457
     20 C         140.3074  145.8461  161.8943 C.3     1  UNL1        0.1960
     21 O         139.7323  145.8174  159.8527 O.2     1  UNL1       -0.1572
     22 O         141.6189  144.2152  161.5477 O.2     1  UNL1       -0.1572
     23 C         144.6752  141.3649  163.9136 C.3     1  UNL1        0.0871
     24 C         143.9442  142.0261  165.0441 C.2     1  UNL1        0.2262
     25 O         143.9909  143.5176  165.1971 O.2     1  UNL1       -0.2748
     26 N         143.1664  141.1959  166.0218 N.am    1  UNL1       -0.2839
     27 H         143.1357  140.2170  165.9215 H       1  UNL1        0.1549
     28 C         142.4353  141.8572  167.1524 C.ar    1  UNL1        0.0511
     29 C         140.9732  142.1657  167.0216 C.ar    1  UNL1        0.0147
     30 C         140.2421  142.8270  168.1522 C.ar    1  UNL1        0.0021
     31 C         140.9731  143.1798  169.4136 C.ar    1  UNL1        0.0115
     32 C         142.4352  142.8714  169.5444 C.ar    1  UNL1        0.0589
     33 CL        143.1663  143.2242  170.8058 Cl      1  UNL1       -0.0822
     34 C         143.1663  142.2101  168.4138 C.ar    1  UNL1        0.0261
@<TRIPOS>BOND
     1    12    13    1
     2    13     6    1
     3     6     7   ar
     4     7     8   ar
     5     8     9   ar
     6     1     9    1
     7     1     2    1
     8     2     3    1
     9     3    14    1
    10    14    15    1
    11    15    16    1
    12    16    17    1
    13    17    18    1
    14    17    19    1
    15    19    20    1
    16    19    21    2
    17    19    22    2
    18     3     4    1
    19     4     5    1
    20     5    23    1
    21    23    24    1
    22    24    25    2
    23    24    26   am
    24    26    28    1
    25    28    29   ar
    26    29    30   ar
    27    30    31   ar
    28    31    32   ar
    29    32    33    1
    30    32    34   ar
    31     9    10   ar
    32    10    11   ar
    33    11     6   ar
    34     5     1    1
    35    34    28   ar
    36    26    27    1
