@<TRIPOS>MOLECULE
*****
 28 32 0 0 0
SMALL
GASTEIGER

@<TRIPOS>ATOM
      1 C         141.5923  143.3652  162.8407 C.ar    1  UNL1        0.0985
      2 C         142.8764  143.7483  163.5146 C.ar    1  UNL1        0.0207
      3 C         143.3424  142.9941  164.7246 C.ar    1  UNL1        0.0031
      4 C         142.5243  141.8567  165.2605 C.ar    1  UNL1        0.0174
      5 C         142.9903  141.1025  166.4705 C.ar    1  UNL1       -0.0027
      6 C         142.1722  139.9652  167.0064 C.ar    1  UNL1       -0.0207
      7 C         140.8880  139.5821  166.3323 C.ar    1  UNL1       -0.0027
      8 C         140.4220  140.3364  165.1224 C.ar    1  UNL1        0.0188
      9 C         141.2402  141.4737  164.5865 C.ar    1  UNL1        0.0813
     10 N         140.7742  142.2279  163.3766 N.ar    1  UNL1       -0.2439
     11 C         139.0583  145.4180  162.7181 C.3     1  UNL1        0.0538
     12 C         139.9615  145.0630  161.5744 C.ar    1  UNL1        0.0785
     13 N         139.8585  145.5892  160.1735 N.ar    1  UNL1       -0.2307
     14 C         140.9597  144.9710  159.3640 C.ar    1  UNL1        0.1474
     15 C         141.3501  145.1177  157.9232 C.ar    1  UNL1        0.0374
     16 C         142.5241  144.3561  157.3829 C.ar    1  UNL1        0.0046
     17 C         143.3075  143.4478  158.2835 C.ar    1  UNL1        0.0191
     18 C         142.9171  143.3010  159.7244 C.ar    1  UNL1        0.0815
     19 N         141.7431  144.0626  160.2646 N.ar    1  UNL1       -0.2877
     20 C         141.1262  144.1195  161.6307 C.ar    1  UNL1        0.0965
     21 C         142.6382  139.2109  168.2163 C.3     1  UNL1        0.0437
     22 C         142.2287  139.6641  169.5864 C.3     1  UNL1        0.0768
     23 N         141.6374  141.0291  169.7793 N.3     1  UNL1       -0.2737
     24 C         140.1764  141.3489  169.8942 C.3     1  UNL1        0.0721
     25 C         140.0393  142.8313  170.0771 C.3     1  UNL1        0.0187
     26 C         141.4157  143.4278  170.0753 C.3     1  UNL1        0.0174
     27 C         142.4033  142.3139  169.8912 C.3     1  UNL1        0.0576
     28 C         143.8950  142.4594  169.8299 C.3     1  UNL1        0.0173
@<TRIPOS>BOND
     1    11    12    1
     2    12    13   ar
     3    13    14   ar
     4    14    15   ar
     5    15    16   ar
     6    16    17   ar
     7    17    18   ar
     8    18    19   ar
     9    19    20   ar
    10    20     1    1
    11     1     2   ar
    12     2     3   ar
    13     3     4   ar
    14     4     5   ar
    15     5     6   ar
    16     6    21    1
    17    21    22    1
    18    22    23    1
    19    23    24    1
    20    24    25    1
    21    25    26    1
    22    26    27    1
    23    27    28    1
    24     6     7   ar
    25     7     8   ar
    26     8     9   ar
    27     9    10   ar
    28    20    12   ar
    29    10     1   ar
    30    19    14   ar
    31     9     4   ar
    32    27    23    1
@<TRIPOS>MOLECULE
*****
 28 32 0 0 0
SMALL
GASTEIGER

@<TRIPOS>ATOM
      1 C         141.5245  138.4282  159.5717 C.ar    1  UNL1        0.0985
      2 C         140.0378  138.5448  159.4100 C.ar    1  UNL1        0.0207
      3 C         139.1382  138.3676  160.5971 C.ar    1  UNL1        0.0031
      4 C         139.7252  138.0737  161.9458 C.ar    1  UNL1        0.0174
      5 C         138.8255  137.8965  163.1329 C.ar    1  UNL1       -0.0027
      6 C         139.4125  137.6027  164.4816 C.ar    1  UNL1       -0.0207
      7 C         140.8993  137.4860  164.6433 C.ar    1  UNL1       -0.0027
      8 C         141.7989  137.6633  163.4562 C.ar    1  UNL1        0.0188
      9 C         141.2119  137.9571  162.1075 C.ar    1  UNL1        0.0813
     10 N         142.1115  138.1343  160.9204 N.ar    1  UNL1       -0.2439
     11 C         142.8564  141.2362  158.5763 C.3     1  UNL1        0.0538
     12 C         143.0364  139.8961  157.9271 C.ar    1  UNL1        0.0785
     13 N         143.8602  139.6114  156.7063 N.ar    1  UNL1       -0.2307
     14 C         143.7572  138.1447  156.4093 C.ar    1  UNL1        0.1474
     15 C         144.3568  137.2950  155.3284 C.ar    1  UNL1        0.0374
     16 C         144.0690  135.8234  155.2847 C.ar    1  UNL1        0.0046
     17 C         143.1815  135.2017  156.3219 C.ar    1  UNL1        0.0191
     18 C         142.5819  136.0515  157.4028 C.ar    1  UNL1        0.0815
     19 N         142.8697  137.5229  157.4465 N.ar    1  UNL1       -0.2877
     20 C         142.4242  138.6054  158.3845 C.ar    1  UNL1        0.0965
     21 C         138.5129  137.4255  165.6687 C.3     1  UNL1        0.0437
     22 C         138.0323  138.6245  166.4312 C.3     1  UNL1        0.0768
     23 N         138.9320  139.8117  166.6069 N.3     1  UNL1       -0.2737
     24 C         139.9110  140.0184  167.7245 C.3     1  UNL1        0.0721
     25 C         140.5948  141.3351  167.5041 C.3     1  UNL1        0.0187
     26 C         140.0384  141.9423  166.2504 C.3     1  UNL1        0.0174
     27 C         139.0108  141.0008  165.6959 C.3     1  UNL1        0.0576
     28 C         138.2037  141.2113  164.4492 C.3     1  UNL1        0.0173
@<TRIPOS>BOND
     1    11    12    1
     2    12    13   ar
     3    13    14   ar
     4    14    15   ar
     5    15    16   ar
     6    16    17   ar
     7    17    18   ar
     8    18    19   ar
     9    19    20   ar
    10    20     1    1
    11     1     2   ar
    12     2     3   ar
    13     3     4   ar
    14     4     5   ar
    15     5     6   ar
    16     6    21    1
    17    21    22    1
    18    22    23    1
    19    23    24    1
    20    24    25    1
    21    25    26    1
    22    26    27    1
    23    27    28    1
    24     6     7   ar
    25     7     8   ar
    26     8     9   ar
    27     9    10   ar
    28    20    12   ar
    29    10     1   ar
    30    19    14   ar
    31     9     4   ar
    32    27    23    1
@<TRIPOS>MOLECULE
*****
 28 32 0 0 0
SMALL
GASTEIGER

@<TRIPOS>ATOM
      1 C         141.7370  138.6210  159.5014 C.ar    1  UNL1        0.0985
      2 C         140.2516  138.6582  159.2961 C.ar    1  UNL1        0.0207
      3 C         139.3283  138.4150  160.4529 C.ar    1  UNL1        0.0031
      4 C         139.8904  138.1346  161.8151 C.ar    1  UNL1        0.0174
      5 C         138.9670  137.8914  162.9719 C.ar    1  UNL1       -0.0027
      6 C         139.5291  137.6109  164.3341 C.ar    1  UNL1       -0.0207
      7 C         141.0146  137.5737  164.5393 C.ar    1  UNL1       -0.0027
      8 C         141.9379  137.8169  163.3825 C.ar    1  UNL1        0.0188
      9 C         141.3758  138.0973  162.0203 C.ar    1  UNL1        0.0813
     10 N         142.2991  138.3405  160.8635 N.ar    1  UNL1       -0.2439
     11 C         142.1957  136.6250  156.9606 C.3     1  UNL1        0.0538
     12 C         142.8712  137.9467  157.1767 C.ar    1  UNL1        0.0785
     13 N         143.8761  138.5831  156.2628 N.ar    1  UNL1       -0.2307
     14 C         144.2864  139.8939  156.8658 C.ar    1  UNL1        0.1474
     15 C         145.2471  140.9516  156.4097 C.ar    1  UNL1        0.0374
     16 C         145.4564  142.1832  157.2401 C.ar    1  UNL1        0.0046
     17 C         144.7050  142.3569  158.5266 C.ar    1  UNL1        0.0191
     18 C         143.7443  141.2991  158.9828 C.ar    1  UNL1        0.0815
     19 N         143.5350  140.0676  158.1524 N.ar    1  UNL1       -0.2877
     20 C         142.6604  138.8642  158.3445 C.ar    1  UNL1        0.0965
     21 C         138.6058  137.3677  165.4909 C.3     1  UNL1        0.0437
     22 C         138.0788  138.5253  166.2862 C.3     1  UNL1        0.0768
     23 N         138.9201  139.7534  166.4707 N.3     1  UNL1       -0.2737
     24 C         139.8916  139.9970  167.5873 C.3     1  UNL1        0.0721
     25 C         140.5095  141.3477  167.3777 C.3     1  UNL1        0.0187
     26 C         139.9197  141.9388  166.1316 C.3     1  UNL1        0.0174
     27 C         138.9375  140.9535  165.5710 C.3     1  UNL1        0.0576
     28 C         138.1167  141.1362  164.3289 C.3     1  UNL1        0.0173
@<TRIPOS>BOND
     1    11    12    1
     2    12    13   ar
     3    13    14   ar
     4    14    15   ar
     5    15    16   ar
     6    16    17   ar
     7    17    18   ar
     8    18    19   ar
     9    19    20   ar
    10    20     1    1
    11     1     2   ar
    12     2     3   ar
    13     3     4   ar
    14     4     5   ar
    15     5     6   ar
    16     6    21    1
    17    21    22    1
    18    22    23    1
    19    23    24    1
    20    24    25    1
    21    25    26    1
    22    26    27    1
    23    27    28    1
    24     6     7   ar
    25     7     8   ar
    26     8     9   ar
    27     9    10   ar
    28    20    12   ar
    29    10     1   ar
    30    19    14   ar
    31     9     4   ar
    32    27    23    1
@<TRIPOS>MOLECULE
*****
 28 32 0 0 0
SMALL
GASTEIGER

@<TRIPOS>ATOM
      1 C         142.5259  138.2431  159.6680 C.ar    1  UNL1        0.0985
      2 C         143.7296  139.0595  160.0348 C.ar    1  UNL1        0.0207
      3 C         144.0674  139.2910  161.4778 C.ar    1  UNL1        0.0031
      4 C         143.2015  138.7061  162.5540 C.ar    1  UNL1        0.0174
      5 C         143.5394  138.9376  163.9970 C.ar    1  UNL1       -0.0027
      6 C         142.6735  138.3527  165.0732 C.ar    1  UNL1       -0.0207
      7 C         141.4698  137.5363  164.7063 C.ar    1  UNL1       -0.0027
      8 C         141.1320  137.3048  163.2633 C.ar    1  UNL1        0.0188
      9 C         141.9978  137.8897  162.1872 C.ar    1  UNL1        0.0813
     10 N         141.6600  137.6582  160.7442 N.ar    1  UNL1       -0.2439
     11 C         140.8274  140.2622  157.7476 C.3     1  UNL1        0.0538
     12 C         141.4074  138.9396  157.3423 C.ar    1  UNL1        0.0785
     13 N         141.3084  138.3129  155.9831 N.ar    1  UNL1       -0.2307
     14 C         142.0280  136.9974  156.0257 C.ar    1  UNL1        0.1474
     15 C         142.2584  135.9452  154.9819 C.ar    1  UNL1        0.0374
     16 C         143.0326  134.7065  155.3236 C.ar    1  UNL1        0.0046
     17 C         143.5762  134.5203  156.7092 C.ar    1  UNL1        0.0191
     18 C         143.3457  135.5726  157.7530 C.ar    1  UNL1        0.0815
     19 N         142.5717  136.8112  157.4113 N.ar    1  UNL1       -0.2877
     20 C         142.1881  138.0115  158.2249 C.ar    1  UNL1        0.0965
     21 C         143.0113  138.5843  166.5162 C.3     1  UNL1        0.0437
     22 C         142.6791  139.8963  167.1631 C.3     1  UNL1        0.0768
     23 N         141.5252  139.9915  168.1166 N.3     1  UNL1       -0.2737
     24 C         140.0844  140.1747  167.7416 C.3     1  UNL1        0.0721
     25 C         139.2781  140.2167  169.0057 C.3     1  UNL1        0.0187
     26 C         140.2206  140.0593  170.1621 C.3     1  UNL1        0.0174
     27 C         141.6093  139.9201  169.6125 C.3     1  UNL1        0.0576
     28 C         142.8622  139.7411  170.4176 C.3     1  UNL1        0.0173
@<TRIPOS>BOND
     1    11    12    1
     2    12    13   ar
     3    13    14   ar
     4    14    15   ar
     5    15    16   ar
     6    16    17   ar
     7    17    18   ar
     8    18    19   ar
     9    19    20   ar
    10    20     1    1
    11     1     2   ar
    12     2     3   ar
    13     3     4   ar
    14     4     5   ar
    15     5     6   ar
    16     6    21    1
    17    21    22    1
    18    22    23    1
    19    23    24    1
    20    24    25    1
    21    25    26    1
    22    26    27    1
    23    27    28    1
    24     6     7   ar
    25     7     8   ar
    26     8     9   ar
    27     9    10   ar
    28    20    12   ar
    29    10     1   ar
    30    19    14   ar
    31     9     4   ar
    32    27    23    1
@<TRIPOS>MOLECULE
*****
 28 32 0 0 0
SMALL
GASTEIGER

@<TRIPOS>ATOM
      1 C         142.4574  138.4286  159.7562 C.ar    1  UNL1        0.0985
      2 C         143.3902  138.2393  160.9156 C.ar    1  UNL1        0.0207
      3 C         142.8392  138.0211  162.2935 C.ar    1  UNL1        0.0031
      4 C         141.3555  137.9921  162.5121 C.ar    1  UNL1        0.0174
      5 C         140.8046  137.7738  163.8902 C.ar    1  UNL1       -0.0027
      6 C         139.3209  137.7449  164.1088 C.ar    1  UNL1       -0.0207
      7 C         138.3881  137.9341  162.9494 C.ar    1  UNL1       -0.0027
      8 C         138.9391  138.1524  161.5714 C.ar    1  UNL1        0.0188
      9 C         140.4228  138.1814  161.3528 C.ar    1  UNL1        0.0813
     10 N         140.9737  138.3996  159.9749 N.ar    1  UNL1       -0.2439
     11 C         144.0214  141.0973  158.7160 C.3     1  UNL1        0.0538
     12 C         143.7272  139.8735  157.9001 C.ar    1  UNL1        0.0785
     13 N         144.1002  139.6615  156.4628 N.ar    1  UNL1       -0.2307
     14 C         143.6119  138.3038  156.0525 C.ar    1  UNL1        0.1474
     15 C         143.6945  137.5575  154.7540 C.ar    1  UNL1        0.0374
     16 C         143.1023  136.1841  154.6392 C.ar    1  UNL1        0.0046
     17 C         142.4275  135.5571  155.8230 C.ar    1  UNL1        0.0191
     18 C         142.3449  136.3034  157.1216 C.ar    1  UNL1        0.0815
     19 N         142.9371  137.6767  157.2363 N.ar    1  UNL1       -0.2877
     20 C         143.0083  138.6468  158.3782 C.ar    1  UNL1        0.0965
     21 C         138.7700  137.5266  165.4867 C.3     1  UNL1        0.0437
     22 C         138.2653  138.6914  166.2859 C.3     1  UNL1        0.0768
     23 N         139.0905  139.9391  166.3962 N.3     1  UNL1       -0.2737
     24 C         140.1556  140.2044  167.4186 C.3     1  UNL1        0.0721
     25 C         140.7189  141.5699  167.1577 C.3     1  UNL1        0.0187
     26 C         140.0019  142.1486  165.9739 C.3     1  UNL1        0.0174
     27 C         138.9956  141.1407  165.5033 C.3     1  UNL1        0.0576
     28 C         138.0588  141.3056  164.3435 C.3     1  UNL1        0.0173
@<TRIPOS>BOND
     1    11    12    1
     2    12    13   ar
     3    13    14   ar
     4    14    15   ar
     5    15    16   ar
     6    16    17   ar
     7    17    18   ar
     8    18    19   ar
     9    19    20   ar
    10    20     1    1
    11     1     2   ar
    12     2     3   ar
    13     3     4   ar
    14     4     5   ar
    15     5     6   ar
    16     6    21    1
    17    21    22    1
    18    22    23    1
    19    23    24    1
    20    24    25    1
    21    25    26    1
    22    26    27    1
    23    27    28    1
    24     6     7   ar
    25     7     8   ar
    26     8     9   ar
    27     9    10   ar
    28    20    12   ar
    29    10     1   ar
    30    19    14   ar
    31     9     4   ar
    32    27    23    1
@<TRIPOS>MOLECULE
*****
 28 32 0 0 0
SMALL
GASTEIGER

@<TRIPOS>ATOM
      1 C         139.3581  140.2894  162.9049 C.ar    1  UNL1        0.0985
      2 C         138.4720  140.6300  164.0663 C.ar    1  UNL1        0.0207
      3 C         138.9852  140.4866  165.4684 C.ar    1  UNL1        0.0031
      4 C         140.3844  140.0026  165.7092 C.ar    1  UNL1        0.0174
      5 C         140.8975  139.8592  167.1114 C.ar    1  UNL1       -0.0027
      6 C         142.2967  139.3752  167.3522 C.ar    1  UNL1       -0.0207
      7 C         143.1828  139.0346  166.1907 C.ar    1  UNL1       -0.0027
      8 C         142.6696  139.1780  164.7886 C.ar    1  UNL1        0.0188
      9 C         141.2704  139.6620  164.5478 C.ar    1  UNL1        0.0813
     10 N         140.7573  139.8054  163.1457 N.ar    1  UNL1       -0.2439
     11 C         137.3905  138.1947  161.3586 C.3     1  UNL1        0.0538
     12 C         137.9406  139.4700  160.7920 C.ar    1  UNL1        0.0785
     13 N         137.6828  140.0063  159.4151 N.ar    1  UNL1       -0.2307
     14 C         138.4279  141.3006  159.2748 C.ar    1  UNL1        0.1474
     15 C         138.5451  142.2732  158.1389 C.ar    1  UNL1        0.0374
     16 C         139.3805  143.5095  158.2932 C.ar    1  UNL1        0.0046
     17 C         140.0987  143.7730  159.5834 C.ar    1  UNL1        0.0191
     18 C         139.9815  142.8004  160.7193 C.ar    1  UNL1        0.0815
     19 N         139.1461  141.5642  160.5650 N.ar    1  UNL1       -0.2877
     20 C         138.8449  140.4328  161.5027 C.ar    1  UNL1        0.0965
     21 C         142.8099  139.2318  168.7543 C.3     1  UNL1        0.0437
     22 C         141.9570  139.6578  169.9124 C.3     1  UNL1        0.0768
     23 N         141.4688  141.0732  170.0037 N.3     1  UNL1       -0.2737
     24 C         142.3276  142.3029  170.0176 C.3     1  UNL1        0.0721
     25 C         141.4257  143.4971  170.1196 C.3     1  UNL1        0.0187
     26 C         140.0094  143.0054  170.1688 C.3     1  UNL1        0.0174
     27 C         140.0361  141.5073  170.0971 C.3     1  UNL1        0.0576
     28 C         138.8400  140.6024  170.1157 C.3     1  UNL1        0.0173
@<TRIPOS>BOND
     1    11    12    1
     2    12    13   ar
     3    13    14   ar
     4    14    15   ar
     5    15    16   ar
     6    16    17   ar
     7    17    18   ar
     8    18    19   ar
     9    19    20   ar
    10    20     1    1
    11     1     2   ar
    12     2     3   ar
    13     3     4   ar
    14     4     5   ar
    15     5     6   ar
    16     6    21    1
    17    21    22    1
    18    22    23    1
    19    23    24    1
    20    24    25    1
    21    25    26    1
    22    26    27    1
    23    27    28    1
    24     6     7   ar
    25     7     8   ar
    26     8     9   ar
    27     9    10   ar
    28    20    12   ar
    29    10     1   ar
    30    19    14   ar
    31     9     4   ar
    32    27    23    1
@<TRIPOS>MOLECULE
*****
 28 32 0 0 0
SMALL
GASTEIGER

@<TRIPOS>ATOM
      1 C         138.5311  142.0854  159.1038 C.ar    1  UNL1        0.0985
      2 C         138.8686  140.6243  159.1379 C.ar    1  UNL1        0.0207
      3 C         138.8592  139.8827  160.4416 C.ar    1  UNL1        0.0031
      4 C         138.5124  140.6022  161.7113 C.ar    1  UNL1        0.0174
      5 C         138.5031  139.8605  163.0151 C.ar    1  UNL1       -0.0027
      6 C         138.1562  140.5800  164.2848 C.ar    1  UNL1       -0.0207
      7 C         137.8187  142.0412  164.2506 C.ar    1  UNL1       -0.0027
      8 C         137.8281  142.7828  162.9468 C.ar    1  UNL1        0.0188
      9 C         138.1749  142.0633  161.6772 C.ar    1  UNL1        0.0813
     10 N         138.1842  142.8049  160.3734 N.ar    1  UNL1       -0.2439
     11 C         136.5772  141.5082  156.5544 C.3     1  UNL1        0.0538
     12 C         137.6423  142.5618  156.6282 C.ar    1  UNL1        0.0785
     13 N         137.9964  143.5350  155.5431 N.ar    1  UNL1       -0.2307
     14 C         139.1133  144.4019  156.0442 C.ar    1  UNL1        0.1474
     15 C         139.8676  145.5330  155.4107 C.ar    1  UNL1        0.0374
     16 C         140.9582  146.2268  156.1719 C.ar    1  UNL1        0.0046
     17 C         141.2944  145.7892  157.5667 C.ar    1  UNL1        0.0191
     18 C         140.5400  144.6580  158.2003 C.ar    1  UNL1        0.0815
     19 N         139.4495  143.9644  157.4390 N.ar    1  UNL1       -0.2877
     20 C         138.5404  142.8271  157.7999 C.ar    1  UNL1        0.0965
     21 C         138.1469  139.8384  165.5886 C.3     1  UNL1        0.0437
     22 C         139.0202  138.6327  165.7719 C.3     1  UNL1        0.0768
     23 N         140.5130  138.7778  165.7519 N.3     1  UNL1       -0.2737
     24 C         141.3280  139.6352  166.6743 C.3     1  UNL1        0.0721
     25 C         142.7716  139.4784  166.2985 C.3     1  UNL1        0.0187
     26 C         142.8489  138.5242  165.1437 C.3     1  UNL1        0.0174
     27 C         141.4530  138.0912  164.8059 C.3     1  UNL1        0.0576
     28 C         141.0653  137.1389  163.7138 C.3     1  UNL1        0.0173
@<TRIPOS>BOND
     1    11    12    1
     2    12    13   ar
     3    13    14   ar
     4    14    15   ar
     5    15    16   ar
     6    16    17   ar
     7    17    18   ar
     8    18    19   ar
     9    19    20   ar
    10    20     1    1
    11     1     2   ar
    12     2     3   ar
    13     3     4   ar
    14     4     5   ar
    15     5     6   ar
    16     6    21    1
    17    21    22    1
    18    22    23    1
    19    23    24    1
    20    24    25    1
    21    25    26    1
    22    26    27    1
    23    27    28    1
    24     6     7   ar
    25     7     8   ar
    26     8     9   ar
    27     9    10   ar
    28    20    12   ar
    29    10     1   ar
    30    19    14   ar
    31     9     4   ar
    32    27    23    1
@<TRIPOS>MOLECULE
*****
 28 32 0 0 0
SMALL
GASTEIGER

@<TRIPOS>ATOM
      1 C         141.3265  142.6756  162.5962 C.ar    1  UNL1        0.0985
      2 C         141.1191  143.7724  163.5981 C.ar    1  UNL1        0.0207
      3 C         140.6478  143.4434  164.9836 C.ar    1  UNL1        0.0031
      4 C         140.3840  142.0175  165.3672 C.ar    1  UNL1        0.0174
      5 C         139.9127  141.6885  166.7527 C.ar    1  UNL1       -0.0027
      6 C         139.6488  140.2626  167.1363 C.ar    1  UNL1       -0.0207
      7 C         139.8563  139.1657  166.1344 C.ar    1  UNL1       -0.0027
      8 C         140.3276  139.4947  164.7489 C.ar    1  UNL1        0.0188
      9 C         140.5914  140.9206  164.3653 C.ar    1  UNL1        0.0813
     10 N         141.0627  141.2497  162.9798 N.ar    1  UNL1       -0.2439
     11 C         144.4058  143.3021  161.7156 C.3     1  UNL1        0.0538
     12 C         143.2132  143.2926  160.8059 C.ar    1  UNL1        0.0785
     13 N         143.2265  143.5693  159.3318 N.ar    1  UNL1       -0.2307
     14 C         141.8194  143.4524  158.8254 C.ar    1  UNL1        0.1474
     15 C         141.2281  143.6187  157.4570 C.ar    1  UNL1        0.0374
     16 C         139.7537  143.4359  157.2497 C.ar    1  UNL1        0.0046
     17 C         138.8708  143.0869  158.4109 C.ar    1  UNL1        0.0191
     18 C         139.4621  142.9206  159.7794 C.ar    1  UNL1        0.0815
     19 N         140.9364  143.1034  159.9866 N.ar    1  UNL1       -0.2877
     20 C         141.7978  143.0046  161.2107 C.ar    1  UNL1        0.0965
     21 C         139.1775  139.9335  168.5218 C.3     1  UNL1        0.0437
     22 C         139.5601  140.8154  169.6734 C.3     1  UNL1        0.0768
     23 N         140.9686  141.3154  169.7996 N.3     1  UNL1       -0.2737
     24 C         142.2040  140.4663  169.8547 C.3     1  UNL1        0.0721
     25 C         143.3880  141.3784  169.9819 C.3     1  UNL1        0.0187
     26 C         142.8844  142.7912  170.0055 C.3     1  UNL1        0.0174
     27 C         141.3891  142.7522  169.8928 C.3     1  UNL1        0.0576
     28 C         140.4749  143.9413  169.8762 C.3     1  UNL1        0.0173
@<TRIPOS>BOND
     1    11    12    1
     2    12    13   ar
     3    13    14   ar
     4    14    15   ar
     5    15    16   ar
     6    16    17   ar
     7    17    18   ar
     8    18    19   ar
     9    19    20   ar
    10    20     1    1
    11     1     2   ar
    12     2     3   ar
    13     3     4   ar
    14     4     5   ar
    15     5     6   ar
    16     6    21    1
    17    21    22    1
    18    22    23    1
    19    23    24    1
    20    24    25    1
    21    25    26    1
    22    26    27    1
    23    27    28    1
    24     6     7   ar
    25     7     8   ar
    26     8     9   ar
    27     9    10   ar
    28    20    12   ar
    29    10     1   ar
    30    19    14   ar
    31     9     4   ar
    32    27    23    1
@<TRIPOS>MOLECULE
*****
 28 32 0 0 0
SMALL
GASTEIGER

@<TRIPOS>ATOM
      1 C         142.4552  138.5476  159.4205 C.ar    1  UNL1        0.0985
      2 C         143.4028  138.2928  160.5549 C.ar    1  UNL1        0.0207
      3 C         142.8706  138.0414  161.9346 C.ar    1  UNL1        0.0031
      4 C         141.3908  138.0448  162.1798 C.ar    1  UNL1        0.0174
      5 C         140.8586  137.7935  163.5596 C.ar    1  UNL1       -0.0027
      6 C         139.3788  137.7969  163.8048 C.ar    1  UNL1       -0.0207
      7 C         138.4312  138.0517  162.6703 C.ar    1  UNL1       -0.0027
      8 C         138.9634  138.3031  161.2906 C.ar    1  UNL1        0.0188
      9 C         140.4432  138.2997  161.0454 C.ar    1  UNL1        0.0813
     10 N         140.9754  138.5510  159.6657 N.ar    1  UNL1       -0.2439
     11 C         142.1517  136.5539  156.8547 C.3     1  UNL1        0.0538
     12 C         142.8478  137.8826  156.8614 C.ar    1  UNL1        0.0785
     13 N         143.5267  138.5281  155.6899 N.ar    1  UNL1       -0.2307
     14 C         144.0858  139.8435  156.1452 C.ar    1  UNL1        0.1474
     15 C         144.8553  140.9104  155.4246 C.ar    1  UNL1        0.0374
     16 C         145.2916  142.1448  156.1568 C.ar    1  UNL1        0.0046
     17 C         144.9582  142.3122  157.6096 C.ar    1  UNL1        0.0191
     18 C         144.1886  141.2452  158.3303 C.ar    1  UNL1        0.0815
     19 N         143.7524  140.0109  157.5981 N.ar    1  UNL1       -0.2877
     20 C         142.9873  138.7989  158.0407 C.ar    1  UNL1        0.0965
     21 C         138.8466  137.5456  165.1845 C.3     1  UNL1        0.0437
     22 C         138.2554  138.6734  165.9773 C.3     1  UNL1        0.0768
     23 N         138.7865  140.0663  165.8110 N.3     1  UNL1       -0.2737
     24 C         138.2576  141.1046  164.8664 C.3     1  UNL1        0.0721
     25 C         139.0840  142.3455  165.0316 C.3     1  UNL1        0.0187
     26 C         140.1237  142.0740  166.0783 C.3     1  UNL1        0.0174
     27 C         139.9398  140.6654  166.5599 C.3     1  UNL1        0.0576
     28 C         140.7645  139.9769  167.6067 C.3     1  UNL1        0.0173
@<TRIPOS>BOND
     1    11    12    1
     2    12    13   ar
     3    13    14   ar
     4    14    15   ar
     5    15    16   ar
     6    16    17   ar
     7    17    18   ar
     8    18    19   ar
     9    19    20   ar
    10    20     1    1
    11     1     2   ar
    12     2     3   ar
    13     3     4   ar
    14     4     5   ar
    15     5     6   ar
    16     6    21    1
    17    21    22    1
    18    22    23    1
    19    23    24    1
    20    24    25    1
    21    25    26    1
    22    26    27    1
    23    27    28    1
    24     6     7   ar
    25     7     8   ar
    26     8     9   ar
    27     9    10   ar
    28    20    12   ar
    29    10     1   ar
    30    19    14   ar
    31     9     4   ar
    32    27    23    1
