@<TRIPOS>MOLECULE
*****
 34 39 0 0 0
SMALL
GASTEIGER

@<TRIPOS>ATOM
      1 C         143.3507  141.6202  162.5590 C.ar    1  UNL1        0.1074
      2 C         144.7665  141.1531  162.7238 C.ar    1  UNL1        0.0588
      3 S         144.8596  140.4037  164.0198 S.2     1  UNL1       -0.0508
      4 C         143.5012  140.4077  164.6561 C.ar    1  UNL1        0.1646
      5 N         142.5687  141.1595  163.7532 N.ar    1  UNL1       -0.2224
      6 C         141.4730  144.4431  160.4961 C.ar    1  UNL1        0.2416
      7 N         142.0121  143.6540  161.6523 N.ar    1  UNL1       -0.2089
      8 C         142.8115  142.4094  161.4030 C.ar    1  UNL1        0.1026
      9 C         143.0717  141.9540  159.9976 C.ar    1  UNL1        0.0224
     10 C         142.5325  142.7433  158.8416 C.ar    1  UNL1        0.0239
     11 C         141.7332  143.9878  159.0909 C.ar    1  UNL1        0.1189
     12 N         141.1940  144.7770  157.9348 N.ar    1  UNL1       -0.2826
     13 C         141.9163  145.8650  157.1966 C.ar    1  UNL1        0.1826
     14 N         141.0066  146.3772  156.1196 N.ar    1  UNL1       -0.2280
     15 C         139.7220  145.6058  156.1921 C.ar    1  UNL1        0.0786
     16 C         138.5309  145.7910  155.2994 C.3     1  UNL1        0.0538
     17 C         139.8380  144.6169  157.3140 C.ar    1  UNL1        0.0963
     18 C         139.8993  145.8387  162.0213 C.3     1  UNL1        0.2543
     19 O         140.6737  145.6876  160.7455 O.3     1  UNL1       -0.4551
     20 N         143.1389  139.7715  165.9654 N.pl3   1  UNL1       -0.2786
     21 H         143.6933  139.0437  166.3291 H       1  UNL1        0.1555
     22 C         141.9321  140.2443  166.7204 C.ar    1  UNL1        0.1274
     23 C         141.9350  141.1918  167.8833 C.ar    1  UNL1        0.0244
     24 C         140.5152  141.3856  168.3267 C.ar    1  UNL1        0.0773
     25 N         139.6349  140.5579  167.4380 N.ar    1  UNL1       -0.1730
     26 N         140.5106  139.8524  166.4452 N.ar    1  UNL1       -0.2402
     27 C         140.2074  142.2908  169.4825 C.3     1  UNL1        0.0474
     28 C         141.3194  143.0022  170.1948 C.3     1  UNL1        0.0067
     29 C         142.7392  142.8083  169.7513 C.3     1  UNL1        0.0052
     30 C         143.0470  141.9032  168.5956 C.3     1  UNL1        0.0305
     31 C         140.0463  138.9191  165.3667 C.3     1  UNL1        0.1065
     32 C         140.5742  137.6529  164.7600 C.3     1  UNL1        0.0245
     33 C         139.3897  137.5992  163.8414 C.3     1  UNL1        0.0040
     34 C         138.8617  138.8654  164.4480 C.3     1  UNL1        0.0245
@<TRIPOS>BOND
     1    18    19    1
     2    19     6    1
     3     6     7   ar
     4     7     8   ar
     5     8     1    1
     6     1     2   ar
     7     2     3   ar
     8     3     4   ar
     9     4    20    1
    10    20    22    1
    11    22    23   ar
    12    23    24   ar
    13    24    25   ar
    14    25    26   ar
    15    26    31    1
    16    31    32    1
    17    32    33    1
    18    33    34    1
    19    24    27    1
    20    27    28    1
    21    28    29    1
    22    29    30    1
    23     4     5   ar
    24     8     9   ar
    25     9    10   ar
    26    10    11   ar
    27    11    12    1
    28    12    13   ar
    29    13    14   ar
    30    14    15   ar
    31    15    16    1
    32    15    17   ar
    33    11     6   ar
    34    17    12   ar
    35     5     1   ar
    36    26    22   ar
    37    34    31    1
    38    30    23    1
    39    20    21    1
@<TRIPOS>MOLECULE
*****
 34 39 0 0 0
SMALL
GASTEIGER

@<TRIPOS>ATOM
      1 C         143.5658  142.2080  162.1302 C.ar    1  UNL1        0.1074
      2 C         145.0361  142.2837  162.4173 C.ar    1  UNL1        0.0588
      3 S         145.3081  141.4839  163.6568 S.2     1  UNL1       -0.0508
      4 C         144.0059  140.9139  164.1357 C.ar    1  UNL1        0.1646
      5 N         142.9291  141.3615  163.1922 N.ar    1  UNL1       -0.2224
      6 C         140.9660  144.4072  160.0918 C.ar    1  UNL1        0.2416
      7 N         141.6751  143.7514  161.2396 N.ar    1  UNL1       -0.2089
      8 C         142.8567  142.8638  160.9826 C.ar    1  UNL1        0.1026
      9 C         143.3292  142.6320  159.5779 C.ar    1  UNL1        0.0224
     10 C         142.6200  143.2879  158.4302 C.ar    1  UNL1        0.0239
     11 C         141.4384  144.1754  158.6873 C.ar    1  UNL1        0.1189
     12 N         140.7293  144.8312  157.5396 N.ar    1  UNL1       -0.2826
     13 C         139.5235  144.2954  156.8261 C.ar    1  UNL1        0.1826
     14 N         139.1505  145.2709  155.7495 N.ar    1  UNL1       -0.2280
     15 C         140.1257  146.4098  155.7976 C.ar    1  UNL1        0.0786
     16 C         140.1252  147.6096  154.8974 C.3     1  UNL1        0.0538
     17 C         141.1015  146.1379  156.9040 C.ar    1  UNL1        0.0963
     18 C         139.7712  146.1980  161.5464 C.3     1  UNL1        0.2543
     19 O         139.7844  145.2948  160.3489 O.3     1  UNL1       -0.4551
     20 N         143.8141  140.0483  165.3457 N.pl3   1  UNL1       -0.2786
     21 H         144.5938  139.6422  165.7890 H       1  UNL1        0.1555
     22 C         142.4345  139.8014  165.8802 C.ar    1  UNL1        0.1274
     23 C         141.3516  139.0193  165.1979 C.ar    1  UNL1        0.0244
     24 C         140.1434  139.0278  166.0868 C.ar    1  UNL1        0.0773
     25 N         140.4797  139.8151  167.3185 N.ar    1  UNL1       -0.1730
     26 N         141.8957  140.2933  167.1908 N.ar    1  UNL1       -0.2402
     27 C         138.8931  138.3175  165.6599 C.3     1  UNL1        0.0474
     28 C         138.8511  137.5988  164.3440 C.3     1  UNL1        0.0067
     29 C         140.0592  137.5903  163.4551 C.3     1  UNL1        0.0052
     30 C         141.3095  138.3006  163.8820 C.3     1  UNL1        0.0305
     31 C         142.6418  141.1183  168.1971 C.3     1  UNL1        0.1065
     32 C         142.9944  140.9602  169.6465 C.3     1  UNL1        0.0245
     33 C         143.6970  142.2852  169.6201 C.3     1  UNL1        0.0040
     34 C         143.3445  142.4434  168.1707 C.3     1  UNL1        0.0245
@<TRIPOS>BOND
     1    18    19    1
     2    19     6    1
     3     6     7   ar
     4     7     8   ar
     5     8     1    1
     6     1     2   ar
     7     2     3   ar
     8     3     4   ar
     9     4    20    1
    10    20    22    1
    11    22    23   ar
    12    23    24   ar
    13    24    25   ar
    14    25    26   ar
    15    26    31    1
    16    31    32    1
    17    32    33    1
    18    33    34    1
    19    24    27    1
    20    27    28    1
    21    28    29    1
    22    29    30    1
    23     4     5   ar
    24     8     9   ar
    25     9    10   ar
    26    10    11   ar
    27    11    12    1
    28    12    13   ar
    29    13    14   ar
    30    14    15   ar
    31    15    16    1
    32    15    17   ar
    33    11     6   ar
    34    17    12   ar
    35     5     1   ar
    36    26    22   ar
    37    34    31    1
    38    30    23    1
    39    20    21    1
@<TRIPOS>MOLECULE
*****
 34 39 0 0 0
SMALL
GASTEIGER

@<TRIPOS>ATOM
      1 C         142.7346  140.2279  159.9809 C.ar    1  UNL1        0.1074
      2 C         141.2606  140.4992  160.0411 C.ar    1  UNL1        0.0588
      3 S         140.7185  139.8429  161.2762 S.2     1  UNL1       -0.0508
      4 C         141.8576  139.1660  161.9793 C.ar    1  UNL1        0.1646
      5 N         143.1036  139.4039  161.1788 N.ar    1  UNL1       -0.2224
      6 C         145.0234  140.2360  156.7388 C.ar    1  UNL1        0.2416
      7 N         144.0833  139.7658  157.8090 N.ar    1  UNL1       -0.2089
      8 C         143.6745  140.6981  158.9107 C.ar    1  UNL1        0.1026
      9 C         144.2058  142.1005  158.9423 C.ar    1  UNL1        0.0224
     10 C         145.1459  142.5706  157.8720 C.ar    1  UNL1        0.0239
     11 C         145.5546  141.6383  156.7703 C.ar    1  UNL1        0.1189
     12 N         146.4946  142.1085  155.7001 N.ar    1  UNL1       -0.2826
     13 C         146.1230  142.9199  154.4943 C.ar    1  UNL1        0.1826
     14 N         147.3699  143.1626  153.6968 N.ar    1  UNL1       -0.2280
     15 C         148.5123  142.5013  154.4096 C.ar    1  UNL1        0.0786
     16 C         149.9441  142.4930  153.9627 C.3     1  UNL1        0.0538
     17 C         147.9712  141.8498  155.6477 C.ar    1  UNL1        0.0963
     18 C         144.3995  138.7531  154.6987 C.3     1  UNL1        0.2543
     19 O         145.4321  139.3037  155.6371 O.3     1  UNL1       -0.4551
     20 N         141.7666  138.3877  163.2585 N.pl3   1  UNL1       -0.2786
     21 H         141.8744  137.4092  163.2481 H       1  UNL1        0.1555
     22 C         141.5114  139.1004  164.5535 C.ar    1  UNL1        0.1274
     23 C         140.2938  138.9515  165.4167 C.ar    1  UNL1        0.0244
     24 C         140.4588  139.8461  166.6093 C.ar    1  UNL1        0.0773
     25 N         141.7785  140.5479  166.4831 N.ar    1  UNL1       -0.1730
     26 N         142.4291  140.0870  165.2126 N.ar    1  UNL1       -0.2402
     27 C         139.3862  139.9061  167.6561 C.3     1  UNL1        0.0474
     28 C         138.1485  139.0715  167.5102 C.3     1  UNL1        0.0067
     29 C         137.9834  138.1768  166.3176 C.3     1  UNL1        0.0052
     30 C         139.0560  138.1168  165.2708 C.3     1  UNL1        0.0305
     31 C         143.7630  140.5343  164.6924 C.3     1  UNL1        0.1065
     32 C         145.0244  139.8401  164.2714 C.3     1  UNL1        0.0245
     33 C         145.6495  141.1668  163.9568 C.3     1  UNL1        0.0040
     34 C         144.3882  141.8611  164.3778 C.3     1  UNL1        0.0245
@<TRIPOS>BOND
     1    18    19    1
     2    19     6    1
     3     6     7   ar
     4     7     8   ar
     5     8     1    1
     6     1     2   ar
     7     2     3   ar
     8     3     4   ar
     9     4    20    1
    10    20    22    1
    11    22    23   ar
    12    23    24   ar
    13    24    25   ar
    14    25    26   ar
    15    26    31    1
    16    31    32    1
    17    32    33    1
    18    33    34    1
    19    24    27    1
    20    27    28    1
    21    28    29    1
    22    29    30    1
    23     4     5   ar
    24     8     9   ar
    25     9    10   ar
    26    10    11   ar
    27    11    12    1
    28    12    13   ar
    29    13    14   ar
    30    14    15   ar
    31    15    16    1
    32    15    17   ar
    33    11     6   ar
    34    17    12   ar
    35     5     1   ar
    36    26    22   ar
    37    34    31    1
    38    30    23    1
    39    20    21    1
@<TRIPOS>MOLECULE
*****
 34 39 0 0 0
SMALL
GASTEIGER

@<TRIPOS>ATOM
      1 C         142.7298  143.3307  163.0741 C.ar    1  UNL1        0.1074
      2 C         143.9148  143.9467  163.7568 C.ar    1  UNL1        0.0588
      3 S         144.1321  143.2218  165.0520 S.2     1  UNL1       -0.0508
      4 C         143.0812  142.1579  165.1696 C.ar    1  UNL1        0.1646
      5 N         142.2146  142.2252  163.9472 N.ar    1  UNL1       -0.2224
      6 C         142.3549  143.8985  159.1642 C.ar    1  UNL1        0.2416
      7 N         142.9248  143.4819  160.4877 N.ar    1  UNL1       -0.2089
      8 C         142.1599  143.7472  161.7505 C.ar    1  UNL1        0.1026
      9 C         140.8252  144.4291  161.6897 C.ar    1  UNL1        0.0224
     10 C         140.2554  144.8456  160.3661 C.ar    1  UNL1        0.0239
     11 C         141.0203  144.5803  159.1034 C.ar    1  UNL1        0.1189
     12 N         140.4505  144.9968  157.7798 N.ar    1  UNL1       -0.2826
     13 C         139.5158  144.1891  156.9288 C.ar    1  UNL1        0.1826
     14 N         139.2029  144.9872  155.6980 N.ar    1  UNL1       -0.2280
     15 C         139.9442  146.2882  155.7881 C.ar    1  UNL1        0.0786
     16 C         139.9189  147.3897  154.7704 C.3     1  UNL1        0.0538
     17 C         140.7152  146.2940  157.0749 C.ar    1  UNL1        0.0963
     18 C         144.3179  142.7310  157.9258 C.3     1  UNL1        0.2543
     19 O         143.1198  143.6331  157.9014 O.3     1  UNL1       -0.4551
     20 N         142.9245  141.1955  166.3096 N.pl3   1  UNL1       -0.2786
     21 H         143.7160  140.8936  166.8112 H       1  UNL1        0.1555
     22 C         141.5620  140.6932  166.6851 C.ar    1  UNL1        0.1274
     23 C         140.7885  139.6246  165.9710 C.ar    1  UNL1        0.0244
     24 C         139.4821  139.4422  166.6852 C.ar    1  UNL1        0.0773
     25 N         139.4483  140.3980  167.8408 N.ar    1  UNL1       -0.1730
     26 N         140.7337  141.1712  167.8407 N.ar    1  UNL1       -0.2402
     27 C         138.4922  138.4294  166.1911 C.3     1  UNL1        0.0474
     28 C         138.8087  137.5989  164.9827 C.3     1  UNL1        0.0067
     29 C         140.1151  137.7814  164.2685 C.3     1  UNL1        0.0052
     30 C         141.1050  138.7942  164.7626 C.3     1  UNL1        0.0305
     31 C         141.1225  142.2354  168.8237 C.3     1  UNL1        0.1065
     32 C         142.3624  142.5561  169.6047 C.3     1  UNL1        0.0245
     33 C         141.6723  143.7405  170.2138 C.3     1  UNL1        0.0040
     34 C         140.4325  143.4199  169.4328 C.3     1  UNL1        0.0245
@<TRIPOS>BOND
     1    18    19    1
     2    19     6    1
     3     6     7   ar
     4     7     8   ar
     5     8     1    1
     6     1     2   ar
     7     2     3   ar
     8     3     4   ar
     9     4    20    1
    10    20    22    1
    11    22    23   ar
    12    23    24   ar
    13    24    25   ar
    14    25    26   ar
    15    26    31    1
    16    31    32    1
    17    32    33    1
    18    33    34    1
    19    24    27    1
    20    27    28    1
    21    28    29    1
    22    29    30    1
    23     4     5   ar
    24     8     9   ar
    25     9    10   ar
    26    10    11   ar
    27    11    12    1
    28    12    13   ar
    29    13    14   ar
    30    14    15   ar
    31    15    16    1
    32    15    17   ar
    33    11     6   ar
    34    17    12   ar
    35     5     1   ar
    36    26    22   ar
    37    34    31    1
    38    30    23    1
    39    20    21    1
@<TRIPOS>MOLECULE
*****
 34 39 0 0 0
SMALL
GASTEIGER

@<TRIPOS>ATOM
      1 C         141.8621  140.3058  159.8417 C.ar    1  UNL1        0.1074
      2 C         142.8291  139.2577  159.3769 C.ar    1  UNL1        0.0588
      3 S         143.1417  138.3661  160.5420 S.2     1  UNL1       -0.0508
      4 C         142.3678  138.8632  161.7268 C.ar    1  UNL1        0.1646
      5 N         141.5769  140.0621  161.2940 N.ar    1  UNL1       -0.2224
      6 C         140.2339  143.7742  158.8075 C.ar    1  UNL1        0.2416
      7 N         140.8140  142.6752  159.6476 N.ar    1  UNL1       -0.2089
      8 C         141.2820  141.4048  159.0017 C.ar    1  UNL1        0.1026
      9 C         141.1698  141.2334  157.5157 C.ar    1  UNL1        0.0224
     10 C         140.5896  142.3325  156.6757 C.ar    1  UNL1        0.0239
     11 C         140.1217  143.6028  157.3216 C.ar    1  UNL1        0.1189
     12 N         139.5416  144.7018  156.4816 N.ar    1  UNL1       -0.2826
     13 C         138.2333  144.6548  155.7491 C.ar    1  UNL1        0.1826
     14 N         138.0510  145.9647  155.0414 N.ar    1  UNL1       -0.2280
     15 C         139.2466  146.8213  155.3363 C.ar    1  UNL1        0.0786
     16 C         139.4800  148.2139  154.8301 C.3     1  UNL1        0.0538
     17 C         140.1678  146.0407  156.2265 C.ar    1  UNL1        0.0963
     18 C         140.3056  145.4474  160.7937 C.3     1  UNL1        0.2543
     19 O         139.7659  145.0445  159.4534 O.3     1  UNL1       -0.4551
     20 N         142.3822  138.2663  163.1029 N.pl3   1  UNL1       -0.2786
     21 H         142.7195  137.3515  163.2392 H       1  UNL1        0.1555
     22 C         141.8827  139.0633  164.2714 C.ar    1  UNL1        0.1274
     23 C         140.6039  138.8258  165.0186 C.ar    1  UNL1        0.0244
     24 C         140.5052  139.8534  166.1068 C.ar    1  UNL1        0.0773
     25 N         141.7230  140.7260  166.0322 N.ar    1  UNL1       -0.1730
     26 N         142.5744  140.2377  164.8978 N.ar    1  UNL1       -0.2402
     27 C         139.3192  139.8618  167.0251 C.3     1  UNL1        0.0474
     28 C         138.2319  138.8425  166.8551 C.3     1  UNL1        0.0067
     29 C         138.3307  137.8149  165.7669 C.3     1  UNL1        0.0052
     30 C         139.5167  137.8065  164.8486 C.3     1  UNL1        0.0305
     31 C         143.8869  140.8214  164.4658 C.3     1  UNL1        0.1065
     32 C         145.1478  140.2700  163.8690 C.3     1  UNL1        0.0245
     33 C         145.7430  141.6468  163.8548 C.3     1  UNL1        0.0040
     34 C         144.4821  142.1982  164.4515 C.3     1  UNL1        0.0245
@<TRIPOS>BOND
     1    18    19    1
     2    19     6    1
     3     6     7   ar
     4     7     8   ar
     5     8     1    1
     6     1     2   ar
     7     2     3   ar
     8     3     4   ar
     9     4    20    1
    10    20    22    1
    11    22    23   ar
    12    23    24   ar
    13    24    25   ar
    14    25    26   ar
    15    26    31    1
    16    31    32    1
    17    32    33    1
    18    33    34    1
    19    24    27    1
    20    27    28    1
    21    28    29    1
    22    29    30    1
    23     4     5   ar
    24     8     9   ar
    25     9    10   ar
    26    10    11   ar
    27    11    12    1
    28    12    13   ar
    29    13    14   ar
    30    14    15   ar
    31    15    16    1
    32    15    17   ar
    33    11     6   ar
    34    17    12   ar
    35     5     1   ar
    36    26    22   ar
    37    34    31    1
    38    30    23    1
    39    20    21    1
@<TRIPOS>MOLECULE
*****
 34 39 0 0 0
SMALL
GASTEIGER

@<TRIPOS>ATOM
      1 C         141.8167  138.3609  160.5683 C.ar    1  UNL1        0.1074
      2 C         140.7651  138.8525  159.6183 C.ar    1  UNL1        0.0588
      3 S         141.1290  138.3831  158.2408 S.2     1  UNL1       -0.0508
      4 C         142.4054  137.6015  158.3396 C.ar    1  UNL1        0.1646
      5 N         142.8304  137.5877  159.7780 N.ar    1  UNL1       -0.2224
      6 C         142.2785  140.1843  164.0629 C.ar    1  UNL1        0.2416
      7 N         142.2464  139.9448  162.5824 N.ar    1  UNL1       -0.2089
      8 C         141.8488  138.6005  162.0486 C.ar    1  UNL1        0.1026
      9 C         141.4835  137.4957  162.9953 C.ar    1  UNL1        0.0224
     10 C         141.5156  137.7353  164.4757 C.ar    1  UNL1        0.0239
     11 C         141.9132  139.0796  165.0095 C.ar    1  UNL1        0.1189
     12 N         141.9453  139.3192  166.4899 N.ar    1  UNL1       -0.2826
     13 C         143.0669  138.9565  167.4176 C.ar    1  UNL1        0.1826
     14 N         142.6763  139.3766  168.8035 N.ar    1  UNL1       -0.2280
     15 C         141.3133  139.9990  168.7324 C.ar    1  UNL1        0.0786
     16 C         140.5382  140.5586  169.8883 C.3     1  UNL1        0.0538
     17 C         140.8616  139.9635  167.3024 C.ar    1  UNL1        0.0963
     18 C         144.1097  141.8050  164.9404 C.3     1  UNL1        0.2543
     19 O         142.6760  141.5286  164.5966 O.3     1  UNL1       -0.4551
     20 N         143.1297  136.9482  157.1999 N.pl3   1  UNL1       -0.2786
     21 H         143.9583  137.3479  156.8495 H       1  UNL1        0.1555
     22 C         142.5915  135.6858  156.5943 C.ar    1  UNL1        0.1274
     23 C         143.1044  134.2988  156.8458 C.ar    1  UNL1        0.0244
     24 C         142.2758  133.3446  156.0378 C.ar    1  UNL1        0.0773
     25 N         141.2508  134.1419  155.2869 N.ar    1  UNL1       -0.1730
     26 N         141.4459  135.5888  155.6308 N.ar    1  UNL1       -0.2402
     27 C         142.5616  131.8731  156.0902 C.3     1  UNL1        0.0474
     28 C         143.6760  131.3557  156.9506 C.3     1  UNL1        0.0067
     29 C         144.5046  132.3100  157.7587 C.3     1  UNL1        0.0052
     30 C         144.2188  133.7815  157.7063 C.3     1  UNL1        0.0305
     31 C         140.6375  136.7372  155.1038 C.3     1  UNL1        0.1065
     32 C         139.1861  137.1150  155.1346 C.3     1  UNL1        0.0245
     33 C         139.4942  138.3611  154.3585 C.3     1  UNL1        0.0040
     34 C         140.9454  137.9833  154.3276 C.3     1  UNL1        0.0245
@<TRIPOS>BOND
     1    18    19    1
     2    19     6    1
     3     6     7   ar
     4     7     8   ar
     5     8     1    1
     6     1     2   ar
     7     2     3   ar
     8     3     4   ar
     9     4    20    1
    10    20    22    1
    11    22    23   ar
    12    23    24   ar
    13    24    25   ar
    14    25    26   ar
    15    26    31    1
    16    31    32    1
    17    32    33    1
    18    33    34    1
    19    24    27    1
    20    27    28    1
    21    28    29    1
    22    29    30    1
    23     4     5   ar
    24     8     9   ar
    25     9    10   ar
    26    10    11   ar
    27    11    12    1
    28    12    13   ar
    29    13    14   ar
    30    14    15   ar
    31    15    16    1
    32    15    17   ar
    33    11     6   ar
    34    17    12   ar
    35     5     1   ar
    36    26    22   ar
    37    34    31    1
    38    30    23    1
    39    20    21    1
@<TRIPOS>MOLECULE
*****
 34 39 0 0 0
SMALL
GASTEIGER

@<TRIPOS>ATOM
      1 C         139.7294  139.0033  162.6748 C.ar    1  UNL1        0.1074
      2 C         139.0280  137.9189  163.4376 C.ar    1  UNL1        0.0588
      3 S         139.7380  137.7395  164.7467 S.2     1  UNL1       -0.0508
      4 C         140.8782  138.7131  164.7929 C.ar    1  UNL1        0.1646
      5 N         140.8728  139.4942  163.5123 N.ar    1  UNL1       -0.2224
      6 C         139.1685  139.1387  158.7483 C.ar    1  UNL1        0.2416
      7 N         139.5446  138.6337  160.1097 N.ar    1  UNL1       -0.2089
      8 C         139.3533  139.5083  161.3134 C.ar    1  UNL1        0.1026
      9 C         138.7860  140.8879  161.1554 C.ar    1  UNL1        0.0224
     10 C         138.4099  141.3928  159.7939 C.ar    1  UNL1        0.0239
     11 C         138.6012  140.5182  158.5904 C.ar    1  UNL1        0.1189
     12 N         138.2251  141.0232  157.2289 N.ar    1  UNL1       -0.2826
     13 C         139.1781  141.4656  156.1583 C.ar    1  UNL1        0.1826
     14 N         138.3721  141.8902  154.9668 N.ar    1  UNL1       -0.2280
     15 C         136.9207  141.7103  155.3009 C.ar    1  UNL1        0.0786
     16 C         135.7636  142.0131  154.3958 C.3     1  UNL1        0.0538
     17 C         136.8300  141.1744  156.6990 C.ar    1  UNL1        0.0963
     18 C         140.7385  137.8286  157.1456 C.3     1  UNL1        0.2543
     19 O         139.3598  138.2641  157.5448 O.3     1  UNL1       -0.4551
     20 N         141.8527  138.8768  165.9215 N.pl3   1  UNL1       -0.2786
     21 H         142.4027  138.1136  166.2116 H       1  UNL1        0.1555
     22 C         141.9891  140.2035  166.6081 C.ar    1  UNL1        0.1274
     23 C         141.1689  140.6842  167.7683 C.ar    1  UNL1        0.0244
     24 C         141.6425  142.0602  168.1323 C.ar    1  UNL1        0.0773
     25 N         142.7554  142.4298  167.1970 N.ar    1  UNL1       -0.1730
     26 N         142.9697  141.2823  166.2550 N.ar    1  UNL1       -0.2402
     27 C         140.9992  142.7987  169.2683 C.3     1  UNL1        0.0474
     28 C         139.8822  142.1614  170.0404 C.3     1  UNL1        0.0067
     29 C         139.4086  140.7855  169.6764 C.3     1  UNL1        0.0052
     30 C         140.0519  140.0469  168.5404 C.3     1  UNL1        0.0305
     31 C         143.9860  141.2238  165.1533 C.3     1  UNL1        0.1065
     32 C         144.6289  140.1246  164.3605 C.3     1  UNL1        0.0245
     33 C         145.4233  141.1412  163.5953 C.3     1  UNL1        0.0040
     34 C         144.7804  142.2404  164.3880 C.3     1  UNL1        0.0245
@<TRIPOS>BOND
     1    18    19    1
     2    19     6    1
     3     6     7   ar
     4     7     8   ar
     5     8     1    1
     6     1     2   ar
     7     2     3   ar
     8     3     4   ar
     9     4    20    1
    10    20    22    1
    11    22    23   ar
    12    23    24   ar
    13    24    25   ar
    14    25    26   ar
    15    26    31    1
    16    31    32    1
    17    32    33    1
    18    33    34    1
    19    24    27    1
    20    27    28    1
    21    28    29    1
    22    29    30    1
    23     4     5   ar
    24     8     9   ar
    25     9    10   ar
    26    10    11   ar
    27    11    12    1
    28    12    13   ar
    29    13    14   ar
    30    14    15   ar
    31    15    16    1
    32    15    17   ar
    33    11     6   ar
    34    17    12   ar
    35     5     1   ar
    36    26    22   ar
    37    34    31    1
    38    30    23    1
    39    20    21    1
@<TRIPOS>MOLECULE
*****
 34 39 0 0 0
SMALL
GASTEIGER

@<TRIPOS>ATOM
      1 C         139.4188  143.5580  162.8302 C.ar    1  UNL1        0.1074
      2 C         138.8336  144.4487  163.8857 C.ar    1  UNL1        0.0588
      3 S         138.6909  143.6444  165.1439 S.2     1  UNL1       -0.0508
      4 C         139.1881  142.2568  164.8659 C.ar    1  UNL1        0.1646
      5 N         139.6380  142.2034  163.4359 N.ar    1  UNL1       -0.2224
      6 C         139.5402  143.5118  158.8637 C.ar    1  UNL1        0.2416
      7 N         139.2286  143.1170  160.2769 N.ar    1  UNL1       -0.2089
      8 C         139.7303  143.9528  161.4170 C.ar    1  UNL1        0.1026
      9 C         140.5435  145.1833  161.1439 C.ar    1  UNL1        0.0224
     10 C         140.8550  145.5780  159.7306 C.ar    1  UNL1        0.0239
     11 C         140.3533  144.7422  158.5905 C.ar    1  UNL1        0.1189
     12 N         140.6648  145.1370  157.1773 N.ar    1  UNL1       -0.2826
     13 C         141.6151  144.4332  156.2543 C.ar    1  UNL1        0.1826
     14 N         141.6183  145.1660  154.9456 N.ar    1  UNL1       -0.2280
     15 C         140.6700  146.3227  155.0596 C.ar    1  UNL1        0.0786
     16 C         140.3647  147.3219  153.9834 C.3     1  UNL1        0.0538
     17 C         140.0807  146.3047  156.4390 C.ar    1  UNL1        0.0963
     18 C         137.6323  142.8470  157.2302 C.3     1  UNL1        0.2543
     19 O         139.0385  142.6760  157.7236 O.3     1  UNL1       -0.4551
     20 N         139.2283  141.1218  165.8458 N.pl3   1  UNL1       -0.2786
     21 H         138.4274  140.5679  165.9907 H       1  UNL1        0.1555
     22 C         140.4889  140.8306  166.6049 C.ar    1  UNL1        0.1274
     23 C         141.0157  141.6121  167.7719 C.ar    1  UNL1        0.0244
     24 C         142.2963  140.9714  168.2186 C.ar    1  UNL1        0.0773
     25 N         142.5609  139.7940  167.3276 N.ar    1  UNL1       -0.1730
     26 N         141.4439  139.7070  166.3303 N.ar    1  UNL1       -0.2402
     27 C         143.0560  141.5428  169.3788 C.3     1  UNL1        0.0474
     28 C         142.5351  142.7550  170.0924 C.3     1  UNL1        0.0067
     29 C         141.2545  143.3957  169.6458 C.3     1  UNL1        0.0052
     30 C         140.4948  142.8242  168.4855 C.3     1  UNL1        0.0305
     31 C         141.3060  138.6772  165.2484 C.3     1  UNL1        0.1065
     32 C         140.2411  137.7023  164.8415 C.3     1  UNL1        0.0245
     33 C         141.1111  137.2209  163.7184 C.3     1  UNL1        0.0040
     34 C         142.1760  138.1957  164.1253 C.3     1  UNL1        0.0245
@<TRIPOS>BOND
     1    18    19    1
     2    19     6    1
     3     6     7   ar
     4     7     8   ar
     5     8     1    1
     6     1     2   ar
     7     2     3   ar
     8     3     4   ar
     9     4    20    1
    10    20    22    1
    11    22    23   ar
    12    23    24   ar
    13    24    25   ar
    14    25    26   ar
    15    26    31    1
    16    31    32    1
    17    32    33    1
    18    33    34    1
    19    24    27    1
    20    27    28    1
    21    28    29    1
    22    29    30    1
    23     4     5   ar
    24     8     9   ar
    25     9    10   ar
    26    10    11   ar
    27    11    12    1
    28    12    13   ar
    29    13    14   ar
    30    14    15   ar
    31    15    16    1
    32    15    17   ar
    33    11     6   ar
    34    17    12   ar
    35     5     1   ar
    36    26    22   ar
    37    34    31    1
    38    30    23    1
    39    20    21    1
@<TRIPOS>MOLECULE
*****
 34 39 0 0 0
SMALL
GASTEIGER

@<TRIPOS>ATOM
      1 C         139.3303  139.7300  162.4881 C.ar    1  UNL1        0.1074
      2 C         138.4816  138.6070  163.0061 C.ar    1  UNL1        0.0588
      3 S         139.0813  138.1294  164.2953 S.2     1  UNL1       -0.0508
      4 C         140.3007  138.9572  164.5741 C.ar    1  UNL1        0.1646
      5 N         140.4546  139.9465  163.4571 N.ar    1  UNL1       -0.2224
      6 C         139.1135  142.7507  159.9231 C.ar    1  UNL1        0.2416
      7 N         139.3479  141.9796  161.1882 N.ar    1  UNL1       -0.2089
      8 C         139.0960  140.5012  161.2230 C.ar    1  UNL1        0.1026
      9 C         138.6096  139.7941  159.9928 C.ar    1  UNL1        0.0224
     10 C         138.3753  140.5654  158.7277 C.ar    1  UNL1        0.0239
     11 C         138.6272  142.0436  158.6929 C.ar    1  UNL1        0.1189
     12 N         138.3928  142.8148  157.4279 N.ar    1  UNL1       -0.2826
     13 C         137.1166  142.8500  156.6403 C.ar    1  UNL1        0.1826
     14 N         137.3285  143.7431  155.4540 N.ar    1  UNL1       -0.2280
     15 C         138.7357  144.2600  155.5083 C.ar    1  UNL1        0.0786
     16 C         139.3731  145.1876  154.5168 C.3     1  UNL1        0.0538
     17 C         139.3934  143.6862  156.7283 C.ar    1  UNL1        0.0963
     18 C         140.3790  144.8390  160.8107 C.3     1  UNL1        0.2543
     19 O         139.3654  144.2289  159.8884 O.3     1  UNL1       -0.4551
     20 N         141.2071  138.8200  165.7614 N.pl3   1  UNL1       -0.2786
     21 H         141.5543  137.9345  166.0159 H       1  UNL1        0.1555
     22 C         141.5845  140.0317  166.5610 C.ar    1  UNL1        0.1274
     23 C         140.8735  140.5403  167.7799 C.ar    1  UNL1        0.0244
     24 C         141.5887  141.7705  168.2542 C.ar    1  UNL1        0.0773
     25 N         142.7418  142.0222  167.3284 N.ar    1  UNL1       -0.1730
     26 N         142.7392  140.9476  166.2819 N.ar    1  UNL1       -0.2402
     27 C         141.0977  142.5026  169.4678 C.3     1  UNL1        0.0474
     28 C         139.8914  142.0044  170.2071 C.3     1  UNL1        0.0067
     29 C         139.1761  140.7742  169.7328 C.3     1  UNL1        0.0052
     30 C         139.6672  140.0421  168.5192 C.3     1  UNL1        0.0305
     31 C         143.7192  140.8125  165.1544 C.3     1  UNL1        0.1065
     32 C         144.5471  139.6927  164.5970 C.3     1  UNL1        0.0245
     33 C         145.1052  140.6216  163.5598 C.3     1  UNL1        0.0040
     34 C         144.2774  141.7414  164.1172 C.3     1  UNL1        0.0245
@<TRIPOS>BOND
     1    18    19    1
     2    19     6    1
     3     6     7   ar
     4     7     8   ar
     5     8     1    1
     6     1     2   ar
     7     2     3   ar
     8     3     4   ar
     9     4    20    1
    10    20    22    1
    11    22    23   ar
    12    23    24   ar
    13    24    25   ar
    14    25    26   ar
    15    26    31    1
    16    31    32    1
    17    32    33    1
    18    33    34    1
    19    24    27    1
    20    27    28    1
    21    28    29    1
    22    29    30    1
    23     4     5   ar
    24     8     9   ar
    25     9    10   ar
    26    10    11   ar
    27    11    12    1
    28    12    13   ar
    29    13    14   ar
    30    14    15   ar
    31    15    16    1
    32    15    17   ar
    33    11     6   ar
    34    17    12   ar
    35     5     1   ar
    36    26    22   ar
    37    34    31    1
    38    30    23    1
    39    20    21    1
