@<TRIPOS>MOLECULE
*****
 41 44 0 0 0
SMALL
GASTEIGER

@<TRIPOS>ATOM
      1 C         143.2991  139.4914  157.7758 C.ar    1  UNL1        0.0655
      2 C         143.7162  140.4081  158.8873 C.ar    1  UNL1        0.0337
      3 C         143.7021  139.9214  160.3062 C.ar    1  UNL1        0.0862
      4 C         143.2708  138.5180  160.6134 C.ar    1  UNL1        0.1534
      5 C         142.8536  137.6012  159.5018 C.ar    1  UNL1        0.0539
      6 C         142.8678  138.0879  158.0830 C.ar    1  UNL1        0.0647
      7 C         144.5500  139.8217  155.5228 C.2     1  UNL1        0.2497
      8 O         145.4988  139.3734  155.8302 O.2     1  UNL1       -0.2698
      9 N         143.3132  139.9781  156.3570 N.am    1  UNL1       -0.2794
     10 H         142.5108  140.4001  155.9733 H       1  UNL1        0.1552
     11 C         144.7083  141.7732  153.8149 C.2     1  UNL1        0.0048
     12 C         144.5642  140.3084  154.1040 C.2     1  UNL1        0.0580
     13 N         144.1193  140.8382  161.4177 N.pl3   1  UNL1       -0.2801
     14 H         145.0679  140.9025  161.6729 H       1  UNL1        0.1552
     15 C         143.0911  141.6571  162.1404 C.ar    1  UNL1        0.2208
     16 N         142.4851  142.8572  161.4751 N.ar    1  UNL1       -0.2113
     17 C         141.4570  143.6760  162.1978 C.ar    1  UNL1        0.1136
     18 C         141.0347  143.2949  163.5857 C.ar    1  UNL1        0.1053
     19 C         141.6408  142.0947  164.2510 C.ar    1  UNL1        0.0967
     20 N         142.6689  141.2759  163.5283 N.ar    1  UNL1       -0.2128
     21 C         141.2186  141.7135  165.6390 C.ar    1  UNL1        0.0371
     22 C         141.8214  142.2221  166.9149 C.ar    1  UNL1        0.0775
     23 N         141.0948  141.5797  168.0591 N.ar    1  UNL1       -0.3240
     24 C         141.3715  141.8035  169.5163 C.3     1  UNL1        0.1305
     25 C         140.0428  140.6741  167.4905 C.ar    1  UNL1        0.0600
     26 C         139.0252  139.7849  168.1414 C.ar    1  UNL1        0.0172
     27 C         138.0841  138.9784  167.2965 C.ar    1  UNL1        0.0015
     28 C         138.1606  139.0611  165.8007 C.ar    1  UNL1        0.0001
     29 C         139.1782  139.9503  165.1498 C.ar    1  UNL1        0.0015
     30 C         140.1193  140.7568  165.9947 C.ar    1  UNL1        0.0187
     31 C         140.0066  144.1137  164.3084 C.1     1  UNL1        0.1035
     32 N         138.9784  144.9327  165.0311 N.1     1  UNL1       -0.1907
     33 O         143.2566  138.0313  162.0322 O.3     1  UNL1       -0.4701
     34 C         141.9510  137.8221  162.7403 C.3     1  UNL1        0.2525
     35 N         142.4506  137.1712  156.9715 N.pl3   1  UNL1       -0.3033
     36 C         141.4304  136.9663  156.6353 C.3     1  UNL1        0.1123
     37 C         143.4872  136.4193  156.1904 C.3     1  UNL1        0.1082
     38 C         143.1795  135.0506  155.6593 C.3     1  UNL1        0.0938
     39 N         143.6033  133.8348  156.4287 N.3     1  UNL1       -0.2688
     40 C         143.9161  132.5596  155.7035 C.3     1  UNL1        0.0897
     41 C         143.7144  133.8941  157.9234 C.3     1  UNL1        0.0897
@<TRIPOS>BOND
     1    11    12    2
     2    12     7    1
     3     7     8    2
     4     7     9   am
     5     9     1    1
     6     1     2   ar
     7     2     3   ar
     8     3    13    1
     9    13    15    1
    10    15    16   ar
    11    16    17   ar
    12    17    18   ar
    13    18    31    1
    14    31    32    3
    15    18    19   ar
    16    19    21    1
    17    21    22   ar
    18    22    23   ar
    19    23    24    1
    20    23    25   ar
    21    25    26   ar
    22    26    27   ar
    23    27    28   ar
    24    28    29   ar
    25    29    30   ar
    26    19    20   ar
    27     3     4   ar
    28     4    33    1
    29    33    34    1
    30     4     5   ar
    31     5     6   ar
    32     6    35    1
    33    35    36    1
    34    35    37    1
    35    37    38    1
    36    38    39    1
    37    39    40    1
    38    39    41    1
    39     6     1   ar
    40    20    15   ar
    41    30    21   ar
    42    30    25   ar
    43     9    10    1
    44    13    14    1
@<TRIPOS>MOLECULE
*****
 41 44 0 0 0
SMALL
GASTEIGER

@<TRIPOS>ATOM
      1 C         143.1155  133.3472  156.6194 C.ar    1  UNL1        0.0655
      2 C         143.3485  134.7092  157.2032 C.ar    1  UNL1        0.0337
      3 C         143.1919  135.9298  156.3454 C.ar    1  UNL1        0.0862
      4 C         142.8022  135.7883  154.9039 C.ar    1  UNL1        0.1534
      5 C         142.5691  134.4263  154.3201 C.ar    1  UNL1        0.0539
      6 C         142.7258  133.2058  155.1779 C.ar    1  UNL1        0.0647
      7 C         144.5487  131.3403  157.4365 C.2     1  UNL1        0.2497
      8 O         145.4326  131.5513  156.8283 O.2     1  UNL1       -0.2698
      9 N         143.2721  132.1267  157.4773 N.am    1  UNL1       -0.2794
     10 H         142.5371  131.8419  158.0670 H       1  UNL1        0.1552
     11 C         143.5393  129.2022  158.5134 C.2     1  UNL1        0.0048
     12 C         144.7055  130.1197  158.2943 C.2     1  UNL1        0.0580
     13 N         143.4250  137.2917  156.9293 N.pl3   1  UNL1       -0.2801
     14 H         144.1720  137.8449  156.6051 H       1  UNL1        0.1552
     15 C         142.5198  137.8107  158.0069 C.ar    1  UNL1        0.2208
     16 N         141.0713  138.0649  157.7118 N.ar    1  UNL1       -0.2113
     17 C         140.1662  138.5839  158.7894 C.ar    1  UNL1        0.1136
     18 C         140.7096  138.8487  160.1622 C.ar    1  UNL1        0.1053
     19 C         142.1582  138.5945  160.4574 C.ar    1  UNL1        0.0967
     20 N         143.0632  138.0755  159.3797 N.ar    1  UNL1       -0.2128
     21 C         142.7016  138.8593  161.8302 C.ar    1  UNL1        0.0371
     22 C         142.4072  138.0592  163.0644 C.ar    1  UNL1        0.0775
     23 N         143.1585  138.6761  164.2068 N.ar    1  UNL1       -0.3240
     24 C         143.1522  138.1960  165.6279 C.3     1  UNL1        0.1305
     25 C         143.9171  139.8575  163.6786 C.ar    1  UNL1        0.0600
     26 C         144.8286  140.8447  164.3454 C.ar    1  UNL1        0.0172
     27 C         145.4576  141.9451  163.5434 C.ar    1  UNL1        0.0015
     28 C         145.1752  142.0583  162.0745 C.ar    1  UNL1        0.0001
     29 C         144.2638  141.0711  161.4077 C.ar    1  UNL1        0.0015
     30 C         143.6348  139.9707  162.2098 C.ar    1  UNL1        0.0187
     31 C         139.8045  139.3678  161.2399 C.1     1  UNL1        0.1035
     32 N         138.8993  139.8869  162.3176 N.1     1  UNL1       -0.1907
     33 O         142.6456  137.0089  154.0461 O.3     1  UNL1       -0.4701
     34 C         141.5686  137.0594  153.0032 C.3     1  UNL1        0.2525
     35 N         142.4927  131.8439  154.5941 N.pl3   1  UNL1       -0.3033
     36 C         143.1675  131.2836  153.9409 C.3     1  UNL1        0.1123
     37 C         141.2205  131.1076  154.8926 C.3     1  UNL1        0.1082
     38 C         141.2385  129.6172  155.0613 C.3     1  UNL1        0.0938
     39 N         140.4181  128.7497  154.1534 N.3     1  UNL1       -0.2688
     40 C         140.5371  128.8974  152.6655 C.3     1  UNL1        0.0897
     41 C         139.4786  127.7343  154.7334 C.3     1  UNL1        0.0897
@<TRIPOS>BOND
     1    11    12    2
     2    12     7    1
     3     7     8    2
     4     7     9   am
     5     9     1    1
     6     1     2   ar
     7     2     3   ar
     8     3    13    1
     9    13    15    1
    10    15    16   ar
    11    16    17   ar
    12    17    18   ar
    13    18    31    1
    14    31    32    3
    15    18    19   ar
    16    19    21    1
    17    21    22   ar
    18    22    23   ar
    19    23    24    1
    20    23    25   ar
    21    25    26   ar
    22    26    27   ar
    23    27    28   ar
    24    28    29   ar
    25    29    30   ar
    26    19    20   ar
    27     3     4   ar
    28     4    33    1
    29    33    34    1
    30     4     5   ar
    31     5     6   ar
    32     6    35    1
    33    35    36    1
    34    35    37    1
    35    37    38    1
    36    38    39    1
    37    39    40    1
    38    39    41    1
    39     6     1   ar
    40    20    15   ar
    41    30    21   ar
    42    30    25   ar
    43     9    10    1
    44    13    14    1
@<TRIPOS>MOLECULE
*****
 41 44 0 0 0
SMALL
GASTEIGER

@<TRIPOS>ATOM
      1 C         143.0123  133.3222  156.5359 C.ar    1  UNL1        0.0655
      2 C         143.3786  134.6917  157.0260 C.ar    1  UNL1        0.0337
      3 C         143.1691  135.8855  156.1424 C.ar    1  UNL1        0.0862
      4 C         142.5931  135.7098  154.7685 C.ar    1  UNL1        0.1534
      5 C         142.2267  134.3402  154.2784 C.ar    1  UNL1        0.0539
      6 C         142.4363  133.1464  155.1621 C.ar    1  UNL1        0.0647
      7 C         144.5211  131.3802  157.3737 C.2     1  UNL1        0.2497
      8 O         145.3870  131.6029  156.7441 O.2     1  UNL1       -0.2698
      9 N         143.2219  132.1284  157.4197 N.am    1  UNL1       -0.2794
     10 H         142.5067  131.8359  158.0298 H       1  UNL1        0.1552
     11 C         143.5837  129.2703  158.5652 C.2     1  UNL1        0.0048
     12 C         144.7308  130.1864  158.2574 C.2     1  UNL1        0.0580
     13 N         143.5355  137.2550  156.6325 N.pl3   1  UNL1       -0.2801
     14 H         144.3152  137.7213  156.2533 H       1  UNL1        0.1552
     15 C         142.7139  137.9141  157.7005 C.ar    1  UNL1        0.2208
     16 N         141.2460  138.1372  157.4869 N.ar    1  UNL1       -0.2113
     17 C         140.4244  138.7963  158.5549 C.ar    1  UNL1        0.1136
     18 C         141.0707  139.2323  159.8364 C.ar    1  UNL1        0.1053
     19 C         142.5386  139.0091  160.0500 C.ar    1  UNL1        0.0967
     20 N         143.3601  138.3500  158.9820 N.ar    1  UNL1       -0.2128
     21 C         143.1849  139.4450  161.3315 C.ar    1  UNL1        0.0371
     22 C         144.2401  140.5018  161.4719 C.ar    1  UNL1        0.0775
     23 N         144.5967  140.6105  162.9248 N.ar    1  UNL1       -0.3240
     24 C         145.6102  141.5448  163.5164 C.3     1  UNL1        0.1305
     25 C         143.7618  139.6210  163.6824 C.ar    1  UNL1        0.0600
     26 C         143.6835  139.2828  165.1417 C.ar    1  UNL1        0.0172
     27 C         142.7325  138.2243  165.6162 C.ar    1  UNL1        0.0015
     28 C         141.8599  137.5040  164.6315 C.ar    1  UNL1        0.0001
     29 C         141.9383  137.8422  163.1722 C.ar    1  UNL1        0.0015
     30 C         142.8893  138.9007  162.6977 C.ar    1  UNL1        0.0187
     31 C         140.2491  139.8913  160.9044 C.1     1  UNL1        0.1035
     32 N         139.4274  140.5504  161.9724 N.1     1  UNL1       -0.1907
     33 O         142.3835  136.9036  153.8848 O.3     1  UNL1       -0.4701
     34 C         141.0046  137.4620  153.6931 C.3     1  UNL1        0.2525
     35 N         142.0700  131.7770  154.6719 N.pl3   1  UNL1       -0.3033
     36 C         142.7138  131.0772  154.1319 C.3     1  UNL1        0.1123
     37 C         140.6901  131.2393  154.9102 C.3     1  UNL1        0.1082
     38 C         139.9807  130.4863  153.8241 C.3     1  UNL1        0.0938
     39 N         139.8110  128.9997  153.9298 N.3     1  UNL1       -0.2688
     40 C         139.8094  128.1550  152.6903 C.3     1  UNL1        0.0897
     41 C         139.6430  128.3578  155.2750 C.3     1  UNL1        0.0897
@<TRIPOS>BOND
     1    11    12    2
     2    12     7    1
     3     7     8    2
     4     7     9   am
     5     9     1    1
     6     1     2   ar
     7     2     3   ar
     8     3    13    1
     9    13    15    1
    10    15    16   ar
    11    16    17   ar
    12    17    18   ar
    13    18    31    1
    14    31    32    3
    15    18    19   ar
    16    19    21    1
    17    21    22   ar
    18    22    23   ar
    19    23    24    1
    20    23    25   ar
    21    25    26   ar
    22    26    27   ar
    23    27    28   ar
    24    28    29   ar
    25    29    30   ar
    26    19    20   ar
    27     3     4   ar
    28     4    33    1
    29    33    34    1
    30     4     5   ar
    31     5     6   ar
    32     6    35    1
    33    35    36    1
    34    35    37    1
    35    37    38    1
    36    38    39    1
    37    39    40    1
    38    39    41    1
    39     6     1   ar
    40    20    15   ar
    41    30    21   ar
    42    30    25   ar
    43     9    10    1
    44    13    14    1
@<TRIPOS>MOLECULE
*****
 41 44 0 0 0
SMALL
GASTEIGER

@<TRIPOS>ATOM
      1 C         143.5808  142.6635  158.3955 C.ar    1  UNL1        0.0655
      2 C         144.2369  142.7709  159.7401 C.ar    1  UNL1        0.0337
      3 C         143.4260  143.1560  160.9419 C.ar    1  UNL1        0.0862
      4 C         141.9589  143.4337  160.7989 C.ar    1  UNL1        0.1534
      5 C         141.3027  143.3264  159.4542 C.ar    1  UNL1        0.0539
      6 C         142.1138  142.9413  158.2525 C.ar    1  UNL1        0.0647
      7 C         144.7208  140.8369  156.9417 C.2     1  UNL1        0.2497
      8 O         144.4305  139.9787  157.5541 O.2     1  UNL1       -0.2698
      9 N         144.3919  142.2784  157.1939 N.am    1  UNL1       -0.2794
     10 H         144.7083  142.9718  156.5707 H       1  UNL1        0.1552
     11 C         145.2011  139.2006  154.9816 C.2     1  UNL1        0.0048
     12 C         145.5318  140.4517  155.7401 C.2     1  UNL1        0.0580
     13 N         144.0821  143.2632  162.2864 N.pl3   1  UNL1       -0.2801
     14 H         144.5262  144.1008  162.5520 H       1  UNL1        0.1552
     15 C         144.0617  142.0945  163.2264 C.ar    1  UNL1        0.2208
     16 N         145.1332  141.0479  163.1452 N.ar    1  UNL1       -0.2113
     17 C         145.1128  139.8792  164.0851 C.ar    1  UNL1        0.1136
     18 C         144.0209  139.7569  165.1063 C.ar    1  UNL1        0.1053
     19 C         142.9493  140.8035  165.1875 C.ar    1  UNL1        0.0967
     20 N         142.9698  141.9722  164.2476 N.ar    1  UNL1       -0.2128
     21 C         141.8574  140.6813  166.2087 C.ar    1  UNL1        0.0371
     22 C         141.8072  141.3819  167.5340 C.ar    1  UNL1        0.0775
     23 N         140.5428  140.9705  168.2282 N.ar    1  UNL1       -0.3240
     24 C         140.0892  141.4329  169.5811 C.3     1  UNL1        0.1305
     25 C         139.8115  140.0156  167.3319 C.ar    1  UNL1        0.0600
     26 C         138.5107  139.2859  167.4910 C.ar    1  UNL1        0.0172
     27 C         138.0224  138.3773  166.4020 C.ar    1  UNL1        0.0015
     28 C         138.8349  138.1985  165.1538 C.ar    1  UNL1        0.0001
     29 C         140.1357  138.9283  164.9947 C.ar    1  UNL1        0.0015
     30 C         140.6240  139.8369  166.0837 C.ar    1  UNL1        0.0187
     31 C         144.0005  138.5881  166.0463 C.1     1  UNL1        0.1035
     32 N         143.9802  137.4193  166.9863 N.1     1  UNL1       -0.1907
     33 O         141.1478  143.8188  162.0005 O.3     1  UNL1       -0.4701
     34 C         140.9991  145.2642  162.3732 C.3     1  UNL1        0.2525
     35 N         141.4576  142.8340  156.9080 N.pl3   1  UNL1       -0.3033
     36 C         140.9042  141.9779  156.5122 C.3     1  UNL1        0.1123
     37 C         141.5244  143.9837  155.9469 C.3     1  UNL1        0.1082
     38 C         141.0501  145.3427  156.3691 C.3     1  UNL1        0.0938
     39 N         139.6420  145.7696  156.0776 N.3     1  UNL1       -0.2688
     40 C         139.2202  147.1866  156.3308 C.3     1  UNL1        0.0897
     41 C         138.6556  144.7795  155.5329 C.3     1  UNL1        0.0897
@<TRIPOS>BOND
     1    11    12    2
     2    12     7    1
     3     7     8    2
     4     7     9   am
     5     9     1    1
     6     1     2   ar
     7     2     3   ar
     8     3    13    1
     9    13    15    1
    10    15    16   ar
    11    16    17   ar
    12    17    18   ar
    13    18    31    1
    14    31    32    3
    15    18    19   ar
    16    19    21    1
    17    21    22   ar
    18    22    23   ar
    19    23    24    1
    20    23    25   ar
    21    25    26   ar
    22    26    27   ar
    23    27    28   ar
    24    28    29   ar
    25    29    30   ar
    26    19    20   ar
    27     3     4   ar
    28     4    33    1
    29    33    34    1
    30     4     5   ar
    31     5     6   ar
    32     6    35    1
    33    35    36    1
    34    35    37    1
    35    37    38    1
    36    38    39    1
    37    39    40    1
    38    39    41    1
    39     6     1   ar
    40    20    15   ar
    41    30    21   ar
    42    30    25   ar
    43     9    10    1
    44    13    14    1
@<TRIPOS>MOLECULE
*****
 41 44 0 0 0
SMALL
GASTEIGER

@<TRIPOS>ATOM
      1 C         142.4348  138.2549  158.3648 C.ar    1  UNL1        0.0655
      2 C         142.4925  137.6864  159.7517 C.ar    1  UNL1        0.0337
      3 C         143.2038  138.4345  160.8400 C.ar    1  UNL1        0.0862
      4 C         143.8575  139.7512  160.5414 C.ar    1  UNL1        0.1534
      5 C         143.7999  140.3197  159.1544 C.ar    1  UNL1        0.0539
      6 C         143.0885  139.5716  158.0662 C.ar    1  UNL1        0.0647
      7 C         142.4170  136.3863  156.5599 C.2     1  UNL1        0.2497
      8 O         143.4324  136.0210  156.7361 O.2     1  UNL1       -0.2698
      9 N         141.7235  137.5068  157.2765 N.am    1  UNL1       -0.2794
     10 H         140.8016  137.7512  157.0326 H       1  UNL1        0.1552
     11 C         142.4884  135.0201  154.3511 C.2     1  UNL1        0.0048
     12 C         141.7057  135.6381  155.4716 C.2     1  UNL1        0.0580
     13 N         143.2614  137.8660  162.2269 N.pl3   1  UNL1       -0.2801
     14 H         144.0706  137.3962  162.5330 H       1  UNL1        0.1552
     15 C         142.0862  138.0132  163.1473 C.ar    1  UNL1        0.2208
     16 N         141.1243  136.8757  163.3233 N.ar    1  UNL1       -0.2113
     17 C         139.9491  137.0230  164.2437 C.ar    1  UNL1        0.1136
     18 C         139.7357  138.3076  164.9881 C.ar    1  UNL1        0.1053
     19 C         140.6977  139.4451  164.8120 C.ar    1  UNL1        0.0967
     20 N         141.8728  139.2979  163.8917 N.ar    1  UNL1       -0.2128
     21 C         140.4843  140.7298  165.5564 C.ar    1  UNL1        0.0371
     22 C         140.8537  140.9920  166.9864 C.ar    1  UNL1        0.0775
     23 N         140.4618  142.4021  167.3152 N.ar    1  UNL1       -0.3240
     24 C         140.6486  143.0833  168.6385 C.3     1  UNL1        0.1305
     25 C         139.8502  143.0113  166.0885 C.ar    1  UNL1        0.0600
     26 C         139.2825  144.3737  165.8209 C.ar    1  UNL1        0.0172
     27 C         138.7287  144.7024  164.4662 C.ar    1  UNL1        0.0015
     28 C         138.7426  143.6689  163.3792 C.ar    1  UNL1        0.0001
     29 C         139.3103  142.3066  163.6468 C.ar    1  UNL1        0.0015
     30 C         139.8641  141.9778  165.0015 C.ar    1  UNL1        0.0187
     31 C         138.5605  138.4549  165.9085 C.1     1  UNL1        0.1035
     32 N         137.3852  138.6020  166.8290 N.1     1  UNL1       -0.1907
     33 O         144.5688  140.4993  161.6297 O.3     1  UNL1       -0.4701
     34 C         144.6163  141.9983  161.6019 C.3     1  UNL1        0.2525
     35 N         143.0309  140.1401  156.6793 N.pl3   1  UNL1       -0.3033
     36 C         142.3170  140.8759  156.2988 C.3     1  UNL1        0.1123
     37 C         144.0265  139.7011  155.6468 C.3     1  UNL1        0.1082
     38 C         144.5294  140.6789  154.6265 C.3     1  UNL1        0.0938
     39 N         145.8123  141.4185  154.8652 N.3     1  UNL1       -0.2688
     40 C         146.2506  141.7273  156.2661 C.3     1  UNL1        0.0897
     41 C         146.6570  141.8495  153.7029 C.3     1  UNL1        0.0897
@<TRIPOS>BOND
     1    11    12    2
     2    12     7    1
     3     7     8    2
     4     7     9   am
     5     9     1    1
     6     1     2   ar
     7     2     3   ar
     8     3    13    1
     9    13    15    1
    10    15    16   ar
    11    16    17   ar
    12    17    18   ar
    13    18    31    1
    14    31    32    3
    15    18    19   ar
    16    19    21    1
    17    21    22   ar
    18    22    23   ar
    19    23    24    1
    20    23    25   ar
    21    25    26   ar
    22    26    27   ar
    23    27    28   ar
    24    28    29   ar
    25    29    30   ar
    26    19    20   ar
    27     3     4   ar
    28     4    33    1
    29    33    34    1
    30     4     5   ar
    31     5     6   ar
    32     6    35    1
    33    35    36    1
    34    35    37    1
    35    37    38    1
    36    38    39    1
    37    39    40    1
    38    39    41    1
    39     6     1   ar
    40    20    15   ar
    41    30    21   ar
    42    30    25   ar
    43     9    10    1
    44    13    14    1
@<TRIPOS>MOLECULE
*****
 41 44 0 0 0
SMALL
GASTEIGER

@<TRIPOS>ATOM
      1 C         142.8702  135.5444  156.3521 C.ar    1  UNL1        0.0655
      2 C         142.8948  136.8099  157.1570 C.ar    1  UNL1        0.0337
      3 C         141.7411  137.7660  157.0869 C.ar    1  UNL1        0.0862
      4 C         140.5627  137.4565  156.2118 C.ar    1  UNL1        0.1534
      5 C         140.5381  136.1909  155.4069 C.ar    1  UNL1        0.0539
      6 C         141.6919  135.2349  155.4770 C.ar    1  UNL1        0.0647
      7 C         143.9709  133.4162  157.3566 C.2     1  UNL1        0.2497
      8 O         143.1542  133.1505  158.0335 O.2     1  UNL1       -0.2698
      9 N         144.0240  134.5884  156.4223 N.am    1  UNL1       -0.2794
     10 H         144.8161  134.7303  155.8551 H       1  UNL1        0.1552
     11 C         145.1527  131.2519  156.5384 C.2     1  UNL1        0.0048
     12 C         145.1246  132.4601  157.4269 C.2     1  UNL1        0.0580
     13 N         141.7657  139.0314  157.8918 N.pl3   1  UNL1       -0.2801
     14 H         141.5209  139.8872  157.4711 H       1  UNL1        0.1552
     15 C         142.1634  138.9931  159.3376 C.ar    1  UNL1        0.2208
     16 N         143.4742  138.3843  159.7390 N.ar    1  UNL1       -0.2113
     17 C         143.8718  138.3460  161.1848 C.ar    1  UNL1        0.1136
     18 C         142.9587  138.9165  162.2292 C.ar    1  UNL1        0.1053
     19 C         141.6478  139.5253  161.8277 C.ar    1  UNL1        0.0967
     20 N         141.2502  139.5636  160.3820 N.ar    1  UNL1       -0.2128
     21 C         140.7346  140.0958  162.8721 C.ar    1  UNL1        0.0371
     22 C         140.4488  141.5516  163.0934 C.ar    1  UNL1        0.0775
     23 N         139.4845  141.6661  164.2366 N.ar    1  UNL1       -0.3240
     24 C         138.9281  142.9416  164.7963 C.3     1  UNL1        0.1305
     25 C         139.1744  140.2810  164.7219 C.ar    1  UNL1        0.0600
     26 C         138.2883  139.7782  165.8228 C.ar    1  UNL1        0.0172
     27 C         138.1748  138.3049  166.0803 C.ar    1  UNL1        0.0015
     28 C         138.9474  137.3344  165.2370 C.ar    1  UNL1        0.0001
     29 C         139.8335  137.8372  164.1362 C.ar    1  UNL1        0.0015
     30 C         139.9470  139.3105  163.8786 C.ar    1  UNL1        0.0187
     31 C         143.3563  138.8782  163.6750 C.1     1  UNL1        0.1035
     32 N         143.7540  138.8399  165.1209 N.1     1  UNL1       -0.1907
     33 O         139.4090  138.4125  156.1416 O.3     1  UNL1       -0.4701
     34 C         138.6002  138.5208  154.8830 C.3     1  UNL1        0.2525
     35 N         141.6672  133.9694  154.6721 N.pl3   1  UNL1       -0.3033
     36 C         142.0660  133.8225  153.6645 C.3     1  UNL1        0.1123
     37 C         141.0457  132.7293  155.2430 C.3     1  UNL1        0.1082
     38 C         141.7652  131.4168  155.1458 C.3     1  UNL1        0.0938
     39 N         141.1987  130.3115  154.3047 N.3     1  UNL1       -0.2688
     40 C         139.8262  129.7788  154.5915 C.3     1  UNL1        0.0897
     41 C         142.0048  129.7389  153.1767 C.3     1  UNL1        0.0897
@<TRIPOS>BOND
     1    11    12    2
     2    12     7    1
     3     7     8    2
     4     7     9   am
     5     9     1    1
     6     1     2   ar
     7     2     3   ar
     8     3    13    1
     9    13    15    1
    10    15    16   ar
    11    16    17   ar
    12    17    18   ar
    13    18    31    1
    14    31    32    3
    15    18    19   ar
    16    19    21    1
    17    21    22   ar
    18    22    23   ar
    19    23    24    1
    20    23    25   ar
    21    25    26   ar
    22    26    27   ar
    23    27    28   ar
    24    28    29   ar
    25    29    30   ar
    26    19    20   ar
    27     3     4   ar
    28     4    33    1
    29    33    34    1
    30     4     5   ar
    31     5     6   ar
    32     6    35    1
    33    35    36    1
    34    35    37    1
    35    37    38    1
    36    38    39    1
    37    39    40    1
    38    39    41    1
    39     6     1   ar
    40    20    15   ar
    41    30    21   ar
    42    30    25   ar
    43     9    10    1
    44    13    14    1
@<TRIPOS>MOLECULE
*****
 41 44 0 0 0
SMALL
GASTEIGER

@<TRIPOS>ATOM
      1 C         142.7154  138.7385  158.3148 C.ar    1  UNL1        0.0655
      2 C         142.7009  138.0017  159.6213 C.ar    1  UNL1        0.0337
      3 C         143.3087  138.6269  160.8418 C.ar    1  UNL1        0.0862
      4 C         143.9311  139.9890  160.7558 C.ar    1  UNL1        0.1534
      5 C         143.9457  140.7259  159.4493 C.ar    1  UNL1        0.0539
      6 C         143.3378  140.1006  158.2288 C.ar    1  UNL1        0.0647
      7 C         142.9735  137.3654  156.1245 C.2     1  UNL1        0.2497
      8 O         144.0531  137.2061  156.1934 O.2     1  UNL1       -0.2698
      9 N         142.1075  138.1133  157.0943 N.am    1  UNL1       -0.2794
     10 H         141.1402  138.1938  156.9298 H       1  UNL1        0.1552
     11 C         142.3529  137.4894  153.6046 C.2     1  UNL1        0.0048
     12 C         142.3657  136.7401  154.9040 C.2     1  UNL1        0.0580
     13 N         143.2942  137.8901  162.1482 N.pl3   1  UNL1       -0.2801
     14 H         144.0554  137.3185  162.3995 H       1  UNL1        0.1552
     15 C         142.1199  138.0240  163.0718 C.ar    1  UNL1        0.2208
     16 N         141.1609  136.8823  163.2361 N.ar    1  UNL1       -0.2113
     17 C         139.9866  137.0162  164.1597 C.ar    1  UNL1        0.1136
     18 C         139.7713  138.2917  164.9191 C.ar    1  UNL1        0.1053
     19 C         140.7303  139.4334  164.7548 C.ar    1  UNL1        0.0967
     20 N         141.9046  139.2995  163.8312 N.ar    1  UNL1       -0.2128
     21 C         140.5150  140.7090  165.5142 C.ar    1  UNL1        0.0371
     22 C         140.9071  140.9635  166.9395 C.ar    1  UNL1        0.0775
     23 N         140.5042  142.3657  167.2877 N.ar    1  UNL1       -0.3240
     24 C         140.7068  143.0379  168.6133 C.3     1  UNL1        0.1305
     25 C         139.8631  142.9779  166.0777 C.ar    1  UNL1        0.0600
     26 C         139.2740  144.3354  165.8323 C.ar    1  UNL1        0.0172
     27 C         138.6917  144.6689  164.4908 C.ar    1  UNL1        0.0015
     28 C         138.6984  143.6449  163.3947 C.ar    1  UNL1        0.0001
     29 C         139.2874  142.2875  163.6401 C.ar    1  UNL1        0.0015
     30 C         139.8697  141.9539  164.9815 C.ar    1  UNL1        0.0187
     31 C         138.5970  138.4256  165.8427 C.1     1  UNL1        0.1035
     32 N         137.4227  138.5595  166.7664 N.1     1  UNL1       -0.1907
     33 O         144.5390  140.6142  161.9763 O.3     1  UNL1       -0.4701
     34 C         144.7947  142.0918  162.0138 C.3     1  UNL1        0.2525
     35 N         143.3523  140.8375  156.9224 N.pl3   1  UNL1       -0.3033
     36 C         144.1752  140.8868  156.2038 C.3     1  UNL1        0.1123
     37 C         142.1453  141.6134  156.4854 C.3     1  UNL1        0.1082
     38 C         141.0907  141.9855  157.4850 C.3     1  UNL1        0.0938
     39 N         141.2003  143.2730  158.2469 N.3     1  UNL1       -0.2688
     40 C         142.4909  144.0374  158.2460 C.3     1  UNL1        0.0897
     41 C         140.0194  143.7960  159.0097 C.3     1  UNL1        0.0897
@<TRIPOS>BOND
     1    11    12    2
     2    12     7    1
     3     7     8    2
     4     7     9   am
     5     9     1    1
     6     1     2   ar
     7     2     3   ar
     8     3    13    1
     9    13    15    1
    10    15    16   ar
    11    16    17   ar
    12    17    18   ar
    13    18    31    1
    14    31    32    3
    15    18    19   ar
    16    19    21    1
    17    21    22   ar
    18    22    23   ar
    19    23    24    1
    20    23    25   ar
    21    25    26   ar
    22    26    27   ar
    23    27    28   ar
    24    28    29   ar
    25    29    30   ar
    26    19    20   ar
    27     3     4   ar
    28     4    33    1
    29    33    34    1
    30     4     5   ar
    31     5     6   ar
    32     6    35    1
    33    35    36    1
    34    35    37    1
    35    37    38    1
    36    38    39    1
    37    39    40    1
    38    39    41    1
    39     6     1   ar
    40    20    15   ar
    41    30    21   ar
    42    30    25   ar
    43     9    10    1
    44    13    14    1
@<TRIPOS>MOLECULE
*****
 41 44 0 0 0
SMALL
GASTEIGER

@<TRIPOS>ATOM
      1 C         144.0408  140.1663  157.4104 C.ar    1  UNL1        0.0655
      2 C         144.0529  140.8618  158.7394 C.ar    1  UNL1        0.0337
      3 C         142.8025  140.9221  159.5659 C.ar    1  UNL1        0.0862
      4 C         141.5400  140.2868  159.0633 C.ar    1  UNL1        0.1534
      5 C         141.5279  139.5912  157.7343 C.ar    1  UNL1        0.0539
      6 C         142.7783  139.5310  156.9079 C.ar    1  UNL1        0.0647
      7 C         145.8220  141.3499  155.9354 C.2     1  UNL1        0.2497
      8 O         145.3929  142.3543  155.9883 O.2     1  UNL1       -0.2698
      9 N         145.2912  140.1060  156.5841 N.am    1  UNL1       -0.2794
     10 H         145.7634  139.2501  156.4674 H       1  UNL1        0.1552
     11 C         148.3002  142.0292  155.5514 C.2     1  UNL1        0.0048
     12 C         147.0724  141.2898  155.1090 C.2     1  UNL1        0.0580
     13 N         142.8147  141.6176  160.8948 N.pl3   1  UNL1       -0.2801
     14 H         142.6522  142.5873  160.9443 H       1  UNL1        0.1552
     15 C         143.0744  140.8357  162.1482 C.ar    1  UNL1        0.2208
     16 N         144.2912  139.9645  162.2501 N.ar    1  UNL1       -0.2113
     17 C         144.5510  139.1827  163.5035 C.ar    1  UNL1        0.1136
     18 C         143.5940  139.2720  164.6551 C.ar    1  UNL1        0.1053
     19 C         142.3771  140.1432  164.5532 C.ar    1  UNL1        0.0967
     20 N         142.1174  140.9251  163.2998 N.ar    1  UNL1       -0.2128
     21 C         141.4201  140.2326  165.7048 C.ar    1  UNL1        0.0371
     22 C         141.5115  141.1912  166.8549 C.ar    1  UNL1        0.0775
     23 N         140.3515  140.9300  167.7693 N.ar    1  UNL1       -0.3240
     24 C         140.0523  141.6606  169.0447 C.3     1  UNL1        0.1305
     25 C         139.5432  139.8100  167.1844 C.ar    1  UNL1        0.0600
     26 C         138.2911  139.1269  167.6488 C.ar    1  UNL1        0.0172
     27 C         137.6995  138.0128  166.8373 C.ar    1  UNL1        0.0015
     28 C         138.3599  137.5817  165.5613 C.ar    1  UNL1        0.0001
     29 C         139.6119  138.2648  165.0969 C.ar    1  UNL1        0.0015
     30 C         140.2036  139.3789  165.9084 C.ar    1  UNL1        0.0187
     31 C         143.8537  138.4901  165.9086 C.1     1  UNL1        0.1035
     32 N         144.1135  137.7081  167.1621 N.1     1  UNL1       -0.1907
     33 O         140.2896  140.3471  159.8897 O.3     1  UNL1       -0.4701
     34 C         139.1219  139.4696  159.5482 C.3     1  UNL1        0.2525
     35 N         142.7661  138.8355  155.5790 N.pl3   1  UNL1       -0.3033
     36 C         142.8168  139.3023  154.5914 C.3     1  UNL1        0.1123
     37 C         142.6766  137.3395  155.5162 C.3     1  UNL1        0.1082
     38 C         143.0190  136.5164  156.7225 C.3     1  UNL1        0.0938
     39 N         143.2791  135.0462  156.5781 N.3     1  UNL1       -0.2688
     40 C         143.6792  134.2342  157.7742 C.3     1  UNL1        0.0897
     41 C         143.1390  134.3878  155.2376 C.3     1  UNL1        0.0897
@<TRIPOS>BOND
     1    11    12    2
     2    12     7    1
     3     7     8    2
     4     7     9   am
     5     9     1    1
     6     1     2   ar
     7     2     3   ar
     8     3    13    1
     9    13    15    1
    10    15    16   ar
    11    16    17   ar
    12    17    18   ar
    13    18    31    1
    14    31    32    3
    15    18    19   ar
    16    19    21    1
    17    21    22   ar
    18    22    23   ar
    19    23    24    1
    20    23    25   ar
    21    25    26   ar
    22    26    27   ar
    23    27    28   ar
    24    28    29   ar
    25    29    30   ar
    26    19    20   ar
    27     3     4   ar
    28     4    33    1
    29    33    34    1
    30     4     5   ar
    31     5     6   ar
    32     6    35    1
    33    35    36    1
    34    35    37    1
    35    37    38    1
    36    38    39    1
    37    39    40    1
    38    39    41    1
    39     6     1   ar
    40    20    15   ar
    41    30    21   ar
    42    30    25   ar
    43     9    10    1
    44    13    14    1
@<TRIPOS>MOLECULE
*****
 41 44 0 0 0
SMALL
GASTEIGER

@<TRIPOS>ATOM
      1 C         144.6346  142.1541  157.5746 C.ar    1  UNL1        0.0655
      2 C         144.8310  142.8137  158.9073 C.ar    1  UNL1        0.0337
      3 C         144.3683  142.1285  160.1589 C.ar    1  UNL1        0.0862
      4 C         143.7093  140.7835  160.0777 C.ar    1  UNL1        0.1534
      5 C         143.5128  140.1238  158.7448 C.ar    1  UNL1        0.0539
      6 C         143.9755  140.8091  157.4933 C.ar    1  UNL1        0.0647
      7 C         146.4318  142.4971  155.7302 C.2     1  UNL1        0.2497
      8 O         147.1549  141.7711  156.1120 O.2     1  UNL1       -0.2698
      9 N         145.0972  142.8394  156.3231 N.am    1  UNL1       -0.2794
     10 H         144.5250  143.5139  155.8908 H       1  UNL1        0.1552
     11 C         148.2721  142.9207  153.9457 C.2     1  UNL1        0.0048
     12 C         146.8946  143.1824  154.4786 C.2     1  UNL1        0.0580
     13 N         144.5648  142.7882  161.4916 N.pl3   1  UNL1       -0.2801
     14 H         145.4738  142.9246  161.8441 H       1  UNL1        0.1552
     15 C         143.3762  143.2400  162.2874 C.ar    1  UNL1        0.2208
     16 N         142.5906  144.4394  161.8466 N.ar    1  UNL1       -0.2113
     17 C         141.4021  144.8912  162.6424 C.ar    1  UNL1        0.1136
     18 C         140.9991  144.1436  163.8788 C.ar    1  UNL1        0.1053
     19 C         141.7848  142.9441  164.3196 C.ar    1  UNL1        0.0967
     20 N         142.9733  142.4924  163.5238 N.ar    1  UNL1       -0.2128
     21 C         141.3819  142.1966  165.5560 C.ar    1  UNL1        0.0371
     22 C         142.0241  142.3149  166.9064 C.ar    1  UNL1        0.0775
     23 N         141.3051  141.3908  167.8441 N.ar    1  UNL1       -0.3240
     24 C         141.6177  141.1912  169.2975 C.3     1  UNL1        0.1305
     25 C         140.2186  140.7015  167.0732 C.ar    1  UNL1        0.0600
     26 C         139.1921  139.6847  167.4762 C.ar    1  UNL1        0.0172
     27 C         138.2132  139.1658  166.4651 C.ar    1  UNL1        0.0015
     28 C         138.2606  139.6638  165.0510 C.ar    1  UNL1        0.0001
     29 C         139.2871  140.6806  164.6479 C.ar    1  UNL1        0.0015
     30 C         140.2660  141.1994  165.6591 C.ar    1  UNL1        0.0187
     31 C         139.8106  144.5954  164.6746 C.1     1  UNL1        0.1035
     32 N         138.6220  145.0472  165.4703 N.1     1  UNL1       -0.1907
     33 O         143.2466  140.0981  161.3292 O.3     1  UNL1       -0.4701
     34 C         143.9310  138.8478  161.7964 C.3     1  UNL1        0.2525
     35 N         143.7790  140.1494  156.1606 N.pl3   1  UNL1       -0.3033
     36 C         143.0153  140.3870  155.4149 C.3     1  UNL1        0.1123
     37 C         144.6886  139.0356  155.7337 C.3     1  UNL1        0.1082
     38 C         144.1252  137.8325  155.0373 C.3     1  UNL1        0.0938
     39 N         143.5514  136.7020  155.8391 N.3     1  UNL1       -0.2688
     40 C         143.6729  135.2922  155.3416 C.3     1  UNL1        0.0897
     41 C         142.8562  136.9814  157.1386 C.3     1  UNL1        0.0897
@<TRIPOS>BOND
     1    11    12    2
     2    12     7    1
     3     7     8    2
     4     7     9   am
     5     9     1    1
     6     1     2   ar
     7     2     3   ar
     8     3    13    1
     9    13    15    1
    10    15    16   ar
    11    16    17   ar
    12    17    18   ar
    13    18    31    1
    14    31    32    3
    15    18    19   ar
    16    19    21    1
    17    21    22   ar
    18    22    23   ar
    19    23    24    1
    20    23    25   ar
    21    25    26   ar
    22    26    27   ar
    23    27    28   ar
    24    28    29   ar
    25    29    30   ar
    26    19    20   ar
    27     3     4   ar
    28     4    33    1
    29    33    34    1
    30     4     5   ar
    31     5     6   ar
    32     6    35    1
    33    35    36    1
    34    35    37    1
    35    37    38    1
    36    38    39    1
    37    39    40    1
    38    39    41    1
    39     6     1   ar
    40    20    15   ar
    41    30    21   ar
    42    30    25   ar
    43     9    10    1
    44    13    14    1
