@<TRIPOS>MOLECULE
*****
 28 30 0 0 0
SMALL
GASTEIGER

@<TRIPOS>ATOM
      1 N         140.6472  139.4396  164.5148 N.3     1  UNL1       -0.2724
      2 C         141.2489  139.4510  163.1408 C.3     1  UNL1        0.0721
      3 C         142.7292  139.6245  162.9717 C.3     1  UNL1        0.0174
      4 C         143.6078  139.7867  164.1766 C.3     1  UNL1        0.0031
      5 C         143.0062  139.7753  165.5506 C.3     1  UNL1        0.0174
      6 C         141.5259  139.6018  165.7197 C.3     1  UNL1        0.0721
      7 C         139.1670  139.2661  164.6840 C.3     1  UNL1        0.0769
      8 C         138.3416  140.3806  165.2556 C.3     1  UNL1        0.0467
      9 C         137.9309  142.3133  163.5686 C.ar    1  UNL1        0.1347
     10 C         138.1722  143.7269  163.1288 C.ar    1  UNL1        0.0366
     11 C         139.0654  144.6215  163.9362 C.ar    1  UNL1        0.0031
     12 C         139.7174  144.1024  165.1834 C.ar    1  UNL1       -0.0001
     13 C         139.4761  142.6888  165.6231 C.ar    1  UNL1       -0.0012
     14 C         138.5829  141.7943  164.8158 C.ar    1  UNL1        0.0132
     15 C         137.6068  140.6119  161.6321 C.3     1  UNL1        0.2525
     16 O         137.0377  141.4188  162.7612 O.3     1  UNL1       -0.4717
     17 C         145.0881  139.9602  164.0074 C.3     1  UNL1        0.0048
     18 C         145.6729  141.3361  163.8859 C.3     1  UNL1        0.0265
     19 C         144.7715  142.5202  163.6970 C.ar    1  UNL1       -0.0192
     20 C         144.4171  143.3874  164.8684 C.ar    1  UNL1       -0.0041
     21 C         143.5158  144.5714  164.6796 C.ar    1  UNL1        0.0028
     22 C         142.9689  144.8882  163.3192 C.ar    1  UNL1        0.0369
     23 C         143.3233  144.0209  162.1478 C.ar    1  UNL1        0.1384
     24 C         144.2247  142.8370  162.3367 C.ar    1  UNL1        0.0326
     25 O         142.7764  144.3378  160.7874 O.3     1  UNL1       -0.4724
     26 C         141.3124  144.1669  160.5092 C.3     1  UNL1        0.2434
     27 C         140.4149  145.3674  160.4510 C.3     1  UNL1        0.2403
     28 F         140.3938  146.3440  161.5893 F       1  UNL1       -0.2302
@<TRIPOS>BOND
     1    15    16    1
     2    16     9    1
     3     9    10   ar
     4    10    11   ar
     5    11    12   ar
     6    12    13   ar
     7    13    14   ar
     8    14     8    1
     9     8     7    1
    10     7     1    1
    11     1     2    1
    12     2     3    1
    13     3     4    1
    14     4    17    1
    15    17    18    1
    16    18    19    1
    17    19    20   ar
    18    20    21   ar
    19    21    22   ar
    20    22    23   ar
    21    23    25    1
    22    25    26    1
    23    26    27    1
    24    27    28    1
    25    23    24   ar
    26     4     5    1
    27     5     6    1
    28    14     9   ar
    29     6     1    1
    30    24    19   ar
@<TRIPOS>MOLECULE
*****
 28 30 0 0 0
SMALL
GASTEIGER

@<TRIPOS>ATOM
      1 N         143.2278  143.4245  163.3560 N.3     1  UNL1       -0.2724
      2 C         142.9879  142.2535  162.4497 C.3     1  UNL1        0.0721
      3 C         143.3923  140.8752  162.8822 C.3     1  UNL1        0.0174
      4 C         144.0365  140.6680  164.2208 C.3     1  UNL1        0.0031
      5 C         144.2764  141.8390  165.1270 C.3     1  UNL1        0.0174
      6 C         143.8721  143.2172  164.6947 C.3     1  UNL1        0.0721
      7 C         142.8235  144.8027  162.9236 C.3     1  UNL1        0.0769
      8 C         141.6672  145.4885  163.5891 C.3     1  UNL1        0.0467
      9 C         139.2440  144.9782  162.8032 C.ar    1  UNL1        0.1347
     10 C         137.9450  144.2508  162.9864 C.ar    1  UNL1        0.0366
     11 C         137.7703  143.3064  164.1385 C.ar    1  UNL1        0.0031
     12 C         138.8945  143.0893  165.1075 C.ar    1  UNL1       -0.0001
     13 C         140.1934  143.8167  164.9243 C.ar    1  UNL1       -0.0012
     14 C         140.3682  144.7611  163.7722 C.ar    1  UNL1        0.0132
     15 C         140.1210  145.4660  160.4068 C.3     1  UNL1        0.2525
     16 O         139.4187  145.9227  161.6510 O.3     1  UNL1       -0.4717
     17 C         144.4409  139.2898  164.6531 C.3     1  UNL1        0.0048
     18 C         143.6760  138.5890  165.7366 C.3     1  UNL1        0.0265
     19 C         142.2044  138.8335  165.8942 C.ar    1  UNL1       -0.0192
     20 C         141.7074  139.7462  166.9758 C.ar    1  UNL1       -0.0041
     21 C         140.2359  139.9907  167.1334 C.ar    1  UNL1        0.0028
     22 C         139.2615  139.3225  166.2094 C.ar    1  UNL1        0.0369
     23 C         139.7585  138.4097  165.1278 C.ar    1  UNL1        0.1384
     24 C         141.2300  138.1652  164.9702 C.ar    1  UNL1        0.0326
     25 O         138.7839  137.7414  164.2038 O.3     1  UNL1       -0.4724
     26 C         138.5622  138.2881  162.8247 C.3     1  UNL1        0.2434
     27 C         138.4029  139.7656  162.6202 C.3     1  UNL1        0.2403
     28 F         139.5586  140.6870  162.8760 F       1  UNL1       -0.2302
@<TRIPOS>BOND
     1    15    16    1
     2    16     9    1
     3     9    10   ar
     4    10    11   ar
     5    11    12   ar
     6    12    13   ar
     7    13    14   ar
     8    14     8    1
     9     8     7    1
    10     7     1    1
    11     1     2    1
    12     2     3    1
    13     3     4    1
    14     4    17    1
    15    17    18    1
    16    18    19    1
    17    19    20   ar
    18    20    21   ar
    19    21    22   ar
    20    22    23   ar
    21    23    25    1
    22    25    26    1
    23    26    27    1
    24    27    28    1
    25    23    24   ar
    26     4     5    1
    27     5     6    1
    28    14     9   ar
    29     6     1    1
    30    24    19   ar
@<TRIPOS>MOLECULE
*****
 28 30 0 0 0
SMALL
GASTEIGER

@<TRIPOS>ATOM
      1 N         143.1776  143.3458  163.3016 N.3     1  UNL1       -0.2724
      2 C         144.0636  143.1132  164.4894 C.3     1  UNL1        0.0721
      3 C         144.4119  141.7140  164.9028 C.3     1  UNL1        0.0174
      4 C         143.8741  140.5473  164.1284 C.3     1  UNL1        0.0031
      5 C         142.9881  140.7799  162.9405 C.3     1  UNL1        0.0174
      6 C         142.6399  142.1791  162.5271 C.3     1  UNL1        0.0721
      7 C         142.8294  144.7450  162.8882 C.3     1  UNL1        0.0769
      8 C         141.7080  145.4714  163.5700 C.3     1  UNL1        0.0467
      9 C         139.2564  145.0361  162.8284 C.ar    1  UNL1        0.1347
     10 C         137.9378  144.3526  163.0379 C.ar    1  UNL1        0.0366
     11 C         137.7521  143.4206  164.1985 C.ar    1  UNL1        0.0031
     12 C         138.8851  143.1723  165.1496 C.ar    1  UNL1       -0.0001
     13 C         140.2037  143.8558  164.9401 C.ar    1  UNL1       -0.0012
     14 C         140.3893  144.7878  163.7795 C.ar    1  UNL1        0.0132
     15 C         140.0546  145.4666  160.3937 C.3     1  UNL1        0.2525
     16 O         139.4420  145.9681  161.6678 O.3     1  UNL1       -0.4717
     17 C         144.2224  139.1482  164.5418 C.3     1  UNL1        0.0048
     18 C         143.6754  138.5857  165.8202 C.3     1  UNL1        0.0265
     19 C         142.4390  139.1761  166.4309 C.ar    1  UNL1       -0.0192
     20 C         141.1252  139.0710  165.7148 C.ar    1  UNL1       -0.0041
     21 C         139.8888  139.6613  166.3254 C.ar    1  UNL1        0.0028
     22 C         139.9663  140.3567  167.6522 C.ar    1  UNL1        0.0369
     23 C         141.2801  140.4618  168.3683 C.ar    1  UNL1        0.1384
     24 C         142.5164  139.8714  167.7577 C.ar    1  UNL1        0.0326
     25 O         141.3575  141.1572  169.6952 O.3     1  UNL1       -0.4724
     26 C         141.5646  142.6416  169.7530 C.3     1  UNL1        0.2434
     27 C         140.4111  143.5698  169.5120 C.3     1  UNL1        0.2403
     28 F         140.4033  144.9341  170.1355 F       1  UNL1       -0.2302
@<TRIPOS>BOND
     1    15    16    1
     2    16     9    1
     3     9    10   ar
     4    10    11   ar
     5    11    12   ar
     6    12    13   ar
     7    13    14   ar
     8    14     8    1
     9     8     7    1
    10     7     1    1
    11     1     2    1
    12     2     3    1
    13     3     4    1
    14     4    17    1
    15    17    18    1
    16    18    19    1
    17    19    20   ar
    18    20    21   ar
    19    21    22   ar
    20    22    23   ar
    21    23    25    1
    22    25    26    1
    23    26    27    1
    24    27    28    1
    25    23    24   ar
    26     4     5    1
    27     5     6    1
    28    14     9   ar
    29     6     1    1
    30    24    19   ar
@<TRIPOS>MOLECULE
*****
 28 30 0 0 0
SMALL
GASTEIGER

@<TRIPOS>ATOM
      1 N         143.4650  140.4957  164.5244 N.3     1  UNL1       -0.2724
      2 C         143.1936  140.8494  163.0922 C.3     1  UNL1        0.0721
      3 C         143.0144  142.2848  162.6951 C.3     1  UNL1        0.0174
      4 C         143.1066  143.3664  163.7302 C.3     1  UNL1        0.0031
      5 C         143.3780  143.0128  165.1624 C.3     1  UNL1        0.0174
      6 C         143.5572  141.5775  165.5595 C.3     1  UNL1        0.0721
      7 C         143.6442  139.0604  164.9215 C.3     1  UNL1        0.0769
      8 C         142.5387  138.3343  165.6289 C.3     1  UNL1        0.0467
      9 C         140.2868  138.2514  164.3357 C.ar    1  UNL1        0.1347
     10 C         138.8663  138.7040  164.1704 C.ar    1  UNL1        0.0366
     11 C         138.2771  139.6919  165.1331 C.ar    1  UNL1        0.0031
     12 C         139.1083  140.2273  166.2610 C.ar    1  UNL1       -0.0001
     13 C         140.5288  139.7748  166.4263 C.ar    1  UNL1       -0.0012
     14 C         141.1181  138.7869  165.4636 C.ar    1  UNL1        0.0132
     15 C         141.4682  137.7385  162.0793 C.3     1  UNL1        0.2525
     16 O         140.8761  137.2635  163.3730 O.3     1  UNL1       -0.4717
     17 C         142.9274  144.8018  163.3331 C.3     1  UNL1        0.0048
     18 C         141.6489  145.5158  163.6580 C.3     1  UNL1        0.0265
     19 C         140.3449  144.7756  163.6160 C.ar    1  UNL1       -0.0192
     20 C         139.5918  144.5104  164.8859 C.ar    1  UNL1       -0.0041
     21 C         138.2879  143.7703  164.8440 C.ar    1  UNL1        0.0028
     22 C         137.7369  143.2953  163.5322 C.ar    1  UNL1        0.0369
     23 C         138.4900  143.5606  162.2623 C.ar    1  UNL1        0.1384
     24 C         139.7940  144.3007  162.3042 C.ar    1  UNL1        0.0326
     25 O         137.9390  143.0856  160.9504 O.3     1  UNL1       -0.4724
     26 C         138.6942  142.0722  160.1426 C.3     1  UNL1        0.2434
     27 C         139.1584  140.7975  160.7828 C.3     1  UNL1        0.2403
     28 F         140.0665  140.8448  161.9757 F       1  UNL1       -0.2302
@<TRIPOS>BOND
     1    15    16    1
     2    16     9    1
     3     9    10   ar
     4    10    11   ar
     5    11    12   ar
     6    12    13   ar
     7    13    14   ar
     8    14     8    1
     9     8     7    1
    10     7     1    1
    11     1     2    1
    12     2     3    1
    13     3     4    1
    14     4    17    1
    15    17    18    1
    16    18    19    1
    17    19    20   ar
    18    20    21   ar
    19    21    22   ar
    20    22    23   ar
    21    23    25    1
    22    25    26    1
    23    26    27    1
    24    27    28    1
    25    23    24   ar
    26     4     5    1
    27     5     6    1
    28    14     9   ar
    29     6     1    1
    30    24    19   ar
@<TRIPOS>MOLECULE
*****
 28 30 0 0 0
SMALL
GASTEIGER

@<TRIPOS>ATOM
      1 N         139.3591  143.0965  162.6883 N.3     1  UNL1       -0.2724
      2 C         139.4699  143.8589  163.9753 C.3     1  UNL1        0.0721
      3 C         140.7971  144.4053  164.4114 C.3     1  UNL1        0.0174
      4 C         142.0134  144.1893  163.5605 C.3     1  UNL1        0.0031
      5 C         141.9025  143.4269  162.2735 C.3     1  UNL1        0.0174
      6 C         140.5755  142.8804  161.8374 C.3     1  UNL1        0.0721
      7 C         138.0320  142.5500  162.2521 C.3     1  UNL1        0.0769
      8 C         137.2830  141.6013  163.1403 C.3     1  UNL1        0.0467
      9 C         138.1629  139.1766  162.8293 C.ar    1  UNL1        0.1347
     10 C         138.8517  137.9638  163.3812 C.ar    1  UNL1        0.0366
     11 C         139.3494  137.9629  164.7962 C.ar    1  UNL1        0.0031
     12 C         139.1584  139.1748  165.6593 C.ar    1  UNL1       -0.0001
     13 C         138.4696  140.3875  165.1073 C.ar    1  UNL1       -0.0012
     14 C         137.9719  140.3885  163.6923 C.ar    1  UNL1        0.0132
     15 C         138.6317  139.3437  160.2793 C.3     1  UNL1        0.2525
     16 O         137.6651  139.1775  161.4143 O.3     1  UNL1       -0.4717
     17 C         143.3404  144.7357  163.9966 C.3     1  UNL1        0.0048
     18 C         144.2068  143.9445  164.9311 C.3     1  UNL1        0.0265
     19 C         143.8383  142.5333  165.2818 C.ar    1  UNL1       -0.0192
     20 C         143.0193  142.2546  166.5072 C.ar    1  UNL1       -0.0041
     21 C         142.6507  140.8435  166.8579 C.ar    1  UNL1        0.0028
     22 C         143.1012  139.7112  165.9833 C.ar    1  UNL1        0.0369
     23 C         143.9203  139.9900  164.7580 C.ar    1  UNL1        0.1384
     24 C         144.2888  141.4011  164.4072 C.ar    1  UNL1        0.0326
     25 O         144.3708  138.8577  163.8834 O.3     1  UNL1       -0.4724
     26 C         143.8169  138.7148  162.4967 C.3     1  UNL1        0.2434
     27 C         142.3328  138.6792  162.2818 C.3     1  UNL1        0.2403
     28 F         141.4849  139.8402  162.7096 F       1  UNL1       -0.2302
@<TRIPOS>BOND
     1    15    16    1
     2    16     9    1
     3     9    10   ar
     4    10    11   ar
     5    11    12   ar
     6    12    13   ar
     7    13    14   ar
     8    14     8    1
     9     8     7    1
    10     7     1    1
    11     1     2    1
    12     2     3    1
    13     3     4    1
    14     4    17    1
    15    17    18    1
    16    18    19    1
    17    19    20   ar
    18    20    21   ar
    19    21    22   ar
    20    22    23   ar
    21    23    25    1
    22    25    26    1
    23    26    27    1
    24    27    28    1
    25    23    24   ar
    26     4     5    1
    27     5     6    1
    28    14     9   ar
    29     6     1    1
    30    24    19   ar
@<TRIPOS>MOLECULE
*****
 28 30 0 0 0
SMALL
GASTEIGER

@<TRIPOS>ATOM
      1 N         139.4373  143.0203  162.7164 N.3     1  UNL1       -0.2724
      2 C         139.6041  143.9244  163.9016 C.3     1  UNL1        0.0721
      3 C         140.9754  144.3609  164.3248 C.3     1  UNL1        0.0174
      4 C         142.1798  143.8933  163.5628 C.3     1  UNL1        0.0031
      5 C         142.0130  142.9892  162.3776 C.3     1  UNL1        0.0174
      6 C         140.6418  142.5526  161.9544 C.3     1  UNL1        0.0721
      7 C         138.0661  142.5837  162.2932 C.3     1  UNL1        0.0769
      8 C         137.2880  141.6250  163.1449 C.3     1  UNL1        0.0467
      9 C         138.1388  139.2032  162.7432 C.ar    1  UNL1        0.1347
     10 C         138.7928  137.9544  163.2557 C.ar    1  UNL1        0.0366
     11 C         139.2500  137.8784  164.6823 C.ar    1  UNL1        0.0031
     12 C         139.0531  139.0512  165.5964 C.ar    1  UNL1       -0.0001
     13 C         138.3992  140.3000  165.0840 C.ar    1  UNL1       -0.0012
     14 C         137.9420  140.3760  163.6573 C.ar    1  UNL1        0.0132
     15 C         138.6797  139.5071  160.2203 C.3     1  UNL1        0.2525
     16 O         137.6817  139.2792  161.3166 O.3     1  UNL1       -0.4717
     17 C         143.5510  144.3299  163.9861 C.3     1  UNL1        0.0048
     18 C         144.2971  143.5520  165.0292 C.3     1  UNL1        0.0265
     19 C         144.0743  142.0749  165.1656 C.ar    1  UNL1       -0.0192
     20 C         144.8208  141.1191  164.2829 C.ar    1  UNL1       -0.0041
     21 C         144.5980  139.6421  164.4192 C.ar    1  UNL1        0.0028
     22 C         143.6286  139.1208  165.4383 C.ar    1  UNL1        0.0369
     23 C         142.8821  140.0766  166.3211 C.ar    1  UNL1        0.1384
     24 C         143.1049  141.5536  166.1847 C.ar    1  UNL1        0.0326
     25 O         141.9127  139.5552  167.3402 O.3     1  UNL1       -0.4724
     26 C         141.3211  140.4855  168.3573 C.3     1  UNL1        0.2434
     27 C         140.2481  139.9979  169.2852 C.3     1  UNL1        0.2403
     28 F         138.8183  139.9751  168.8324 F       1  UNL1       -0.2302
@<TRIPOS>BOND
     1    15    16    1
     2    16     9    1
     3     9    10   ar
     4    10    11   ar
     5    11    12   ar
     6    12    13   ar
     7    13    14   ar
     8    14     8    1
     9     8     7    1
    10     7     1    1
    11     1     2    1
    12     2     3    1
    13     3     4    1
    14     4    17    1
    15    17    18    1
    16    18    19    1
    17    19    20   ar
    18    20    21   ar
    19    21    22   ar
    20    22    23   ar
    21    23    25    1
    22    25    26    1
    23    26    27    1
    24    27    28    1
    25    23    24   ar
    26     4     5    1
    27     5     6    1
    28    14     9   ar
    29     6     1    1
    30    24    19   ar
@<TRIPOS>MOLECULE
*****
 28 30 0 0 0
SMALL
GASTEIGER

@<TRIPOS>ATOM
      1 N         139.2464  138.9891  163.2527 N.3     1  UNL1       -0.2724
      2 C         139.3808  140.1397  162.2998 C.3     1  UNL1        0.0721
      3 C         138.9381  141.5119  162.7136 C.3     1  UNL1        0.0174
      4 C         138.3610  141.7334  164.0803 C.3     1  UNL1        0.0031
      5 C         138.2265  140.5828  165.0332 C.3     1  UNL1        0.0174
      6 C         138.6692  139.2107  164.6195 C.3     1  UNL1        0.0721
      7 C         139.6891  137.6170  162.8390 C.3     1  UNL1        0.0769
      8 C         140.9093  137.0037  163.4595 C.3     1  UNL1        0.0467
      9 C         143.0324  138.3285  162.7614 C.ar    1  UNL1        0.1347
     10 C         144.2030  139.1924  163.1265 C.ar    1  UNL1        0.0366
     11 C         144.4211  139.5955  164.5547 C.ar    1  UNL1        0.0031
     12 C         143.4686  139.1346  165.6179 C.ar    1  UNL1       -0.0001
     13 C         142.2980  138.2707  165.2528 C.ar    1  UNL1       -0.0012
     14 C         142.0799  137.8676  163.8246 C.ar    1  UNL1        0.0132
     15 C         143.2682  138.8252  160.2222 C.3     1  UNL1        0.2525
     16 O         142.8143  137.9254  161.3331 O.3     1  UNL1       -0.4717
     17 C         137.9183  143.1056  164.4941 C.3     1  UNL1        0.0048
     18 C         138.8735  144.0202  165.2019 C.3     1  UNL1        0.0265
     19 C         140.3411  143.7101  165.2114 C.ar    1  UNL1       -0.0192
     20 C         140.9122  142.8180  166.2735 C.ar    1  UNL1       -0.0041
     21 C         142.3797  142.5078  166.2831 C.ar    1  UNL1        0.0028
     22 C         143.2762  143.0898  165.2306 C.ar    1  UNL1        0.0369
     23 C         142.7050  143.9819  164.1685 C.ar    1  UNL1        0.1384
     24 C         141.2375  144.2920  164.1589 C.ar    1  UNL1        0.0326
     25 O         143.6015  144.5639  163.1160 O.3     1  UNL1       -0.4724
     26 C         144.4780  143.6641  162.2962 C.3     1  UNL1        0.2434
     27 C         143.8668  142.5730  161.4679 C.3     1  UNL1        0.2403
     28 F         142.6448  141.8545  161.9580 F       1  UNL1       -0.2302
@<TRIPOS>BOND
     1    15    16    1
     2    16     9    1
     3     9    10   ar
     4    10    11   ar
     5    11    12   ar
     6    12    13   ar
     7    13    14   ar
     8    14     8    1
     9     8     7    1
    10     7     1    1
    11     1     2    1
    12     2     3    1
    13     3     4    1
    14     4    17    1
    15    17    18    1
    16    18    19    1
    17    19    20   ar
    18    20    21   ar
    19    21    22   ar
    20    22    23   ar
    21    23    25    1
    22    25    26    1
    23    26    27    1
    24    27    28    1
    25    23    24   ar
    26     4     5    1
    27     5     6    1
    28    14     9   ar
    29     6     1    1
    30    24    19   ar
@<TRIPOS>MOLECULE
*****
 28 30 0 0 0
SMALL
GASTEIGER

@<TRIPOS>ATOM
      1 N         142.3057  138.7363  162.5794 N.3     1  UNL1       -0.2724
      2 C         142.5098  139.9980  161.7943 C.3     1  UNL1        0.0721
      3 C         143.4314  141.0625  162.3117 C.3     1  UNL1        0.0174
      4 C         144.1490  140.8651  163.6140 C.3     1  UNL1        0.0031
      5 C         143.9449  139.6034  164.3991 C.3     1  UNL1        0.0174
      6 C         143.0233  138.5390  163.8818 C.3     1  UNL1        0.0721
      7 C         141.3840  137.6719  162.0622 C.3     1  UNL1        0.0769
      8 C         139.8983  137.8543  162.1591 C.3     1  UNL1        0.0467
      9 C         138.7965  139.8714  163.3705 C.ar    1  UNL1        0.1347
     10 C         138.1939  140.4741  164.6047 C.ar    1  UNL1        0.0366
     11 C         138.0904  139.6626  165.8620 C.ar    1  UNL1        0.0031
     12 C         138.5896  138.2483  165.8850 C.ar    1  UNL1       -0.0001
     13 C         139.1922  137.6456  164.6507 C.ar    1  UNL1       -0.0012
     14 C         139.2957  138.4571  163.3934 C.ar    1  UNL1        0.0132
     15 C         139.4769  142.0668  162.1591 C.3     1  UNL1        0.2525
     16 O         138.9000  140.6829  162.1132 O.3     1  UNL1       -0.4717
     17 C         145.0706  141.9295  164.1312 C.3     1  UNL1        0.0048
     18 C         144.5369  143.0214  165.0104 C.3     1  UNL1        0.0265
     19 C         143.1718  142.8943  165.6191 C.ar    1  UNL1       -0.0192
     20 C         141.9698  143.3989  164.8770 C.ar    1  UNL1       -0.0041
     21 C         140.6047  143.2718  165.4856 C.ar    1  UNL1        0.0028
     22 C         140.4417  142.6402  166.8363 C.ar    1  UNL1        0.0369
     23 C         141.6436  142.1356  167.5784 C.ar    1  UNL1        0.1384
     24 C         143.0087  142.2626  166.9698 C.ar    1  UNL1        0.0326
     25 O         141.4805  141.5039  168.9291 O.3     1  UNL1       -0.4724
     26 C         140.2621  141.7989  169.7528 C.3     1  UNL1        0.2434
     27 C         140.0411  143.1789  170.2975 C.3     1  UNL1        0.2403
     28 F         141.0295  144.2683  170.0038 F       1  UNL1       -0.2302
@<TRIPOS>BOND
     1    15    16    1
     2    16     9    1
     3     9    10   ar
     4    10    11   ar
     5    11    12   ar
     6    12    13   ar
     7    13    14   ar
     8    14     8    1
     9     8     7    1
    10     7     1    1
    11     1     2    1
    12     2     3    1
    13     3     4    1
    14     4    17    1
    15    17    18    1
    16    18    19    1
    17    19    20   ar
    18    20    21   ar
    19    21    22   ar
    20    22    23   ar
    21    23    25    1
    22    25    26    1
    23    26    27    1
    24    27    28    1
    25    23    24   ar
    26     4     5    1
    27     5     6    1
    28    14     9   ar
    29     6     1    1
    30    24    19   ar
@<TRIPOS>MOLECULE
*****
 28 30 0 0 0
SMALL
GASTEIGER

@<TRIPOS>ATOM
      1 N         138.4716  142.0644  163.3813 N.3     1  UNL1       -0.2724
      2 C         139.1850  141.8370  162.0815 C.3     1  UNL1        0.0721
      3 C         139.6152  140.4532  161.6941 C.3     1  UNL1        0.0174
      4 C         139.3320  139.2968  162.6065 C.3     1  UNL1        0.0031
      5 C         138.6186  139.5241  163.9062 C.3     1  UNL1        0.0174
      6 C         138.1884  140.9078  164.2936 C.3     1  UNL1        0.0721
      7 C         138.0414  143.4481  163.7687 C.3     1  UNL1        0.0769
      8 C         138.9522  144.3155  164.5860 C.3     1  UNL1        0.0467
      9 C         141.3221  144.8277  163.6525 C.ar    1  UNL1        0.1347
     10 C         142.8004  144.5738  163.6509 C.ar    1  UNL1        0.0366
     11 C         143.3873  143.5538  164.5810 C.ar    1  UNL1        0.0031
     12 C         142.4958  142.7877  165.5129 C.ar    1  UNL1       -0.0001
     13 C         141.0175  143.0416  165.5145 C.ar    1  UNL1       -0.0012
     14 C         140.4306  144.0616  164.5843 C.ar    1  UNL1        0.0132
     15 C         140.3821  145.4647  161.3157 C.3     1  UNL1        0.2525
     16 O         140.7352  145.8477  162.7223 O.3     1  UNL1       -0.4717
     17 C         139.7622  137.9130  162.2191 C.3     1  UNL1        0.0048
     18 C         140.7666  137.1779  163.0562 C.3     1  UNL1        0.0265
     19 C         141.9046  137.9228  163.6889 C.ar    1  UNL1       -0.0192
     20 C         142.9508  138.5662  162.8278 C.ar    1  UNL1       -0.0041
     21 C         144.0887  139.3111  163.4604 C.ar    1  UNL1        0.0028
     22 C         144.1804  139.4126  164.9541 C.ar    1  UNL1        0.0369
     23 C         143.1342  138.7693  165.8152 C.ar    1  UNL1        0.1384
     24 C         141.9963  138.0244  165.1826 C.ar    1  UNL1        0.0326
     25 O         143.2259  138.8708  167.3090 O.3     1  UNL1       -0.4724
     26 C         142.5645  140.0107  168.0253 C.3     1  UNL1        0.2434
     27 C         141.0746  140.0237  168.1996 C.3     1  UNL1        0.2403
     28 F         140.1790  140.0522  166.9967 F       1  UNL1       -0.2302
@<TRIPOS>BOND
     1    15    16    1
     2    16     9    1
     3     9    10   ar
     4    10    11   ar
     5    11    12   ar
     6    12    13   ar
     7    13    14   ar
     8    14     8    1
     9     8     7    1
    10     7     1    1
    11     1     2    1
    12     2     3    1
    13     3     4    1
    14     4    17    1
    15    17    18    1
    16    18    19    1
    17    19    20   ar
    18    20    21   ar
    19    21    22   ar
    20    22    23   ar
    21    23    25    1
    22    25    26    1
    23    26    27    1
    24    27    28    1
    25    23    24   ar
    26     4     5    1
    27     5     6    1
    28    14     9   ar
    29     6     1    1
    30    24    19   ar
