@<TRIPOS>MOLECULE
*****
 32 36 0 0 0
SMALL
GASTEIGER

@<TRIPOS>ATOM
      1 N         139.7562  145.5895  157.0211 N.am    1  UNL1       -0.2061
      2 C         140.2124  145.6842  158.4469 C.3     1  UNL1        0.1429
      3 C         140.0645  144.3286  159.0719 C.3     1  UNL1        0.1561
      4 C         139.8623  142.9240  159.5580 C.3     1  UNL1        0.0425
      5 C         140.2023  142.5642  160.9739 C.3     1  UNL1        0.0160
      6 C         140.7444  143.6088  161.9038 C.3     1  UNL1        0.1122
      7 C         140.9466  145.0134  161.4177 C.3     1  UNL1        0.0160
      8 C         140.6067  145.3733  160.0018 C.3     1  UNL1        0.0425
      9 O         139.5170  143.3961  158.0323 O.3     1  UNL1       -0.4398
     10 C         139.3265  144.1754  156.7648 C.2     1  UNL1        0.4097
     11 O         138.7988  143.6354  155.4687 O.2     1  UNL1       -0.2258
     12 C         141.0844  143.2489  163.3198 C.2     1  UNL1        0.3506
     13 N         140.1023  142.9602  164.4162 N.2     1  UNL1       -0.0350
     14 C         140.8771  142.6474  165.6619 C.2     1  UNL1        0.2348
     15 C         140.4411  142.2880  167.0514 C.2     1  UNL1        0.0869
     16 C         141.4660  142.0240  168.1144 C.2     1  UNL1        0.1468
     17 C         142.9269  142.1193  167.7878 C.2     1  UNL1        0.0200
     18 C         143.3629  142.4786  166.3983 C.3     1  UNL1        0.1068
     19 C         142.3381  142.7427  165.3354 C.2     1  UNL1        0.2176
     20 N         142.4661  143.1144  163.8878 N.2     1  UNL1       -0.0389
     21 O         141.0300  141.6646  169.5039 O.2     1  UNL1       -0.4047
     22 C         140.1302  142.5884  170.2701 C.3     1  UNL1        0.5753
     23 F         139.2305  143.5122  171.0363 F       1  UNL1       -0.1328
     24 F         139.0704  141.5276  170.3046 F       1  UNL1       -0.1328
     25 F         141.1901  143.6493  170.2357 F       1  UNL1       -0.1328
     26 C         138.3307  150.4105  155.7073 C.3     1  UNL1        0.0521
     27 C         139.0210  149.1224  155.3693 C.ar    1  UNL1        0.0608
     28 C         139.6890  148.9566  154.0365 C.ar    1  UNL1        0.0148
     29 C         140.3793  147.6685  153.6985 C.ar    1  UNL1        0.0041
     30 C         140.4017  146.5461  154.6934 C.ar    1  UNL1        0.0348
     31 C         139.7338  146.7118  156.0263 C.ar    1  UNL1        0.1396
     32 N         139.0435  148.0000  156.3642 N.ar    1  UNL1       -0.2345
@<TRIPOS>BOND
     1    26    27    1
     2    27    28   ar
     3    28    29   ar
     4    29    30   ar
     5    30    31   ar
     6    31     1    1
     7     1     2    1
     8     3     2    1
     9     3     4    1
    10     4     5    1
    11     5     6    1
    12     6    12    1
    13    12    13    2
    14    13    14    1
    15    14    15    2
    16    15    16    1
    17    16    21    1
    18    21    22    1
    19    22    23    1
    20    22    24    1
    21    22    25    1
    22    16    17    2
    23    17    18    1
    24    18    19    1
    25    19    20    2
    26     6     7    1
    27     7     8    1
    28     3     9    1
    29     9    10    1
    30    10    11    2
    31    31    32   ar
    32    32    27   ar
    33    10     1   am
    34     8     3    1
    35    20    12    1
    36    19    14    1
@<TRIPOS>MOLECULE
*****
 32 36 0 0 0
SMALL
GASTEIGER

@<TRIPOS>ATOM
      1 N         142.7549  137.3747  157.7257 N.am    1  UNL1       -0.2061
      2 C         142.6075  137.3066  159.2168 C.3     1  UNL1        0.1429
      3 C         142.7903  138.6911  159.7644 C.3     1  UNL1        0.1561
      4 C         142.9944  140.1225  160.1637 C.3     1  UNL1        0.0425
      5 C         142.9285  140.5144  161.6100 C.3     1  UNL1        0.0160
      6 C         142.6584  139.4749  162.6572 C.3     1  UNL1        0.1122
      7 C         142.4543  138.0435  162.2580 C.3     1  UNL1        0.0160
      8 C         142.5202  137.6516  160.8116 C.3     1  UNL1        0.0425
      9 O         143.0505  139.6149  158.6116 O.3     1  UNL1       -0.4398
     10 C         143.0286  138.8013  157.3515 C.2     1  UNL1        0.4097
     11 O         143.2429  139.3228  155.9615 O.2     1  UNL1       -0.2258
     12 C         142.5924  139.8669  164.1036 C.2     1  UNL1        0.3506
     13 N         142.2797  141.2350  164.6330 N.2     1  UNL1       -0.0350
     14 C         142.3217  141.1732  166.1311 C.2     1  UNL1        0.2348
     15 C         142.0952  142.2158  167.1855 C.2     1  UNL1        0.0869
     16 C         142.2075  141.8519  168.6364 C.2     1  UNL1        0.1468
     17 C         142.5461  140.4455  169.0329 C.2     1  UNL1        0.0200
     18 C         142.7726  139.4029  167.9785 C.3     1  UNL1        0.1068
     19 C         142.6603  139.7667  166.5277 C.2     1  UNL1        0.2176
     20 N         142.8277  138.9594  165.2746 N.2     1  UNL1       -0.0389
     21 O         141.9810  142.8946  169.6907 O.2     1  UNL1       -0.4047
     22 C         140.6210  143.0607  170.3014 C.3     1  UNL1        0.5753
     23 F         139.2611  143.2268  170.9121 F       1  UNL1       -0.1328
     24 F         140.9982  142.1111  171.3996 F       1  UNL1       -0.1328
     25 F         140.2438  144.0102  169.2032 F       1  UNL1       -0.1328
     26 C         144.3712  132.7055  156.1176 C.3     1  UNL1        0.0521
     27 C         143.4555  133.8845  155.9714 C.ar    1  UNL1        0.0608
     28 C         142.4322  133.9079  154.8749 C.ar    1  UNL1        0.0148
     29 C         141.5164  135.0869  154.7287 C.ar    1  UNL1        0.0041
     30 C         141.6240  136.2426  155.6789 C.ar    1  UNL1        0.0348
     31 C         142.6473  136.2192  156.7754 C.ar    1  UNL1        0.1396
     32 N         143.5630  135.0402  156.9216 N.ar    1  UNL1       -0.2345
@<TRIPOS>BOND
     1    26    27    1
     2    27    28   ar
     3    28    29   ar
     4    29    30   ar
     5    30    31   ar
     6    31     1    1
     7     1     2    1
     8     3     2    1
     9     3     4    1
    10     4     5    1
    11     5     6    1
    12     6    12    1
    13    12    13    2
    14    13    14    1
    15    14    15    2
    16    15    16    1
    17    16    21    1
    18    21    22    1
    19    22    23    1
    20    22    24    1
    21    22    25    1
    22    16    17    2
    23    17    18    1
    24    18    19    1
    25    19    20    2
    26     6     7    1
    27     7     8    1
    28     3     9    1
    29     9    10    1
    30    10    11    2
    31    31    32   ar
    32    32    27   ar
    33    10     1   am
    34     8     3    1
    35    20    12    1
    36    19    14    1
@<TRIPOS>MOLECULE
*****
 32 36 0 0 0
SMALL
GASTEIGER

@<TRIPOS>ATOM
      1 N         145.6040  141.6208  156.6083 N.am    1  UNL1       -0.2061
      2 C         145.2241  142.2691  157.9066 C.3     1  UNL1        0.1429
      3 C         144.4401  141.2739  158.7097 C.3     1  UNL1        0.1561
      4 C         143.6755  140.1791  159.3929 C.3     1  UNL1        0.0425
      5 C         143.0976  140.4072  160.7582 C.3     1  UNL1        0.0160
      6 C         143.2842  141.7301  161.4402 C.3     1  UNL1        0.1122
      7 C         144.0488  142.8249  160.7570 C.3     1  UNL1        0.0160
      8 C         144.6267  142.5967  159.3917 C.3     1  UNL1        0.0425
      9 O         144.3354  140.0105  157.9078 O.3     1  UNL1       -0.4398
     10 C         145.0548  140.2249  156.6090 C.2     1  UNL1        0.4097
     11 O         145.1996  139.2200  155.5049 O.2     1  UNL1       -0.2258
     12 C         142.7063  141.9581  162.8055 C.2     1  UNL1        0.3506
     13 N         143.3991  141.7001  164.1106 N.2     1  UNL1       -0.0350
     14 C         142.4551  142.0668  165.2171 C.2     1  UNL1        0.2348
     15 C         142.5927  142.0220  166.7101 C.2     1  UNL1        0.0869
     16 C         141.4539  142.4618  167.5818 C.2     1  UNL1        0.1468
     17 C         140.1776  142.9465  166.9605 C.2     1  UNL1        0.0200
     18 C         140.0400  142.9913  165.4675 C.3     1  UNL1        0.1068
     19 C         141.1786  142.5515  164.5958 C.2     1  UNL1        0.2176
     20 N         141.3339  142.4843  163.1054 N.2     1  UNL1       -0.0389
     21 O         141.5916  142.4170  169.0748 O.2     1  UNL1       -0.4047
     22 C         140.4454  142.8369  169.9466 C.3     1  UNL1        0.5753
     23 F         139.2992  143.2568  170.8183 F       1  UNL1       -0.1328
     24 F         140.9904  144.2336  169.9904 F       1  UNL1       -0.1328
     25 F         139.9003  141.4402  169.9027 F       1  UNL1       -0.1328
     26 C         145.8926  144.9215  152.6056 C.3     1  UNL1        0.0521
     27 C         146.5386  143.9071  153.5020 C.ar    1  UNL1        0.0608
     28 C         147.9751  143.5286  153.2936 C.ar    1  UNL1        0.0148
     29 C         148.6212  142.5142  154.1900 C.ar    1  UNL1        0.0041
     30 C         147.8308  141.8783  155.2950 C.ar    1  UNL1        0.0348
     31 C         146.3944  142.2567  155.5035 C.ar    1  UNL1        0.1396
     32 N         145.7484  143.2711  154.6070 N.ar    1  UNL1       -0.2345
@<TRIPOS>BOND
     1    26    27    1
     2    27    28   ar
     3    28    29   ar
     4    29    30   ar
     5    30    31   ar
     6    31     1    1
     7     1     2    1
     8     3     2    1
     9     3     4    1
    10     4     5    1
    11     5     6    1
    12     6    12    1
    13    12    13    2
    14    13    14    1
    15    14    15    2
    16    15    16    1
    17    16    21    1
    18    21    22    1
    19    22    23    1
    20    22    24    1
    21    22    25    1
    22    16    17    2
    23    17    18    1
    24    18    19    1
    25    19    20    2
    26     6     7    1
    27     7     8    1
    28     3     9    1
    29     9    10    1
    30    10    11    2
    31    31    32   ar
    32    32    27   ar
    33    10     1   am
    34     8     3    1
    35    20    12    1
    36    19    14    1
@<TRIPOS>MOLECULE
*****
 32 36 0 0 0
SMALL
GASTEIGER

@<TRIPOS>ATOM
      1 N         140.2167  142.0028  165.0149 N.am    1  UNL1       -0.2061
      2 C         141.4121  141.7105  164.1573 C.3     1  UNL1        0.1429
      3 C         141.0782  142.1009  162.7479 C.3     1  UNL1        0.1561
      4 C         140.6034  142.5346  161.3928 C.3     1  UNL1        0.0425
      5 C         141.5118  142.4128  160.2054 C.3     1  UNL1        0.0160
      6 C         142.8950  141.8572  160.3731 C.3     1  UNL1        0.1122
      7 C         143.3698  141.4235  161.7282 C.3     1  UNL1        0.0160
      8 C         142.4614  141.5453  162.9156 C.3     1  UNL1        0.0425
      9 O         139.6764  142.6346  162.7346 O.3     1  UNL1       -0.4398
     10 C         139.1439  142.5740  164.1357 C.2     1  UNL1        0.4097
     11 O         137.7785  143.0083  164.5795 O.2     1  UNL1       -0.2258
     12 C         143.8033  141.7353  159.1856 C.2     1  UNL1        0.3506
     13 N         144.9598  142.6349  158.8642 N.2     1  UNL1       -0.0350
     14 C         145.5859  142.1481  157.5910 C.2     1  UNL1        0.2348
     15 C         146.7573  142.6428  156.7954 C.2     1  UNL1        0.0869
     16 C         147.1592  141.9369  155.5343 C.2     1  UNL1        0.1468
     17 C         146.3896  140.7365  155.0688 C.2     1  UNL1        0.0200
     18 C         145.2182  140.2418  155.8645 C.3     1  UNL1        0.1068
     19 C         144.8163  140.9475  157.1256 C.2     1  UNL1        0.2176
     20 N         143.7147  140.6925  158.1111 N.2     1  UNL1       -0.0389
     21 O         148.3306  142.4316  154.7386 O.2     1  UNL1       -0.4047
     22 C         149.6206  141.6662  154.7481 C.3     1  UNL1        0.5753
     23 F         150.9106  140.9009  154.7575 F       1  UNL1       -0.1328
     24 F         149.4337  141.3333  153.2975 F       1  UNL1       -0.1328
     25 F         149.8075  141.9991  156.1987 F       1  UNL1       -0.1328
     26 C         140.6590  143.7370  169.8931 C.3     1  UNL1        0.0521
     27 C         140.3335  142.6329  168.9314 C.ar    1  UNL1        0.0608
     28 C         139.9037  141.2914  169.4472 C.ar    1  UNL1        0.0148
     29 C         139.5782  140.1873  168.4855 C.ar    1  UNL1        0.0041
     30 C         139.6825  140.4244  167.0081 C.ar    1  UNL1        0.0348
     31 C         140.1124  141.7657  166.4923 C.ar    1  UNL1        0.1396
     32 N         140.4379  142.8699  167.4539 N.ar    1  UNL1       -0.2345
@<TRIPOS>BOND
     1    26    27    1
     2    27    28   ar
     3    28    29   ar
     4    29    30   ar
     5    30    31   ar
     6    31     1    1
     7     1     2    1
     8     3     2    1
     9     3     4    1
    10     4     5    1
    11     5     6    1
    12     6    12    1
    13    12    13    2
    14    13    14    1
    15    14    15    2
    16    15    16    1
    17    16    21    1
    18    21    22    1
    19    22    23    1
    20    22    24    1
    21    22    25    1
    22    16    17    2
    23    17    18    1
    24    18    19    1
    25    19    20    2
    26     6     7    1
    27     7     8    1
    28     3     9    1
    29     9    10    1
    30    10    11    2
    31    31    32   ar
    32    32    27   ar
    33    10     1   am
    34     8     3    1
    35    20    12    1
    36    19    14    1
@<TRIPOS>MOLECULE
*****
 32 36 0 0 0
SMALL
GASTEIGER

@<TRIPOS>ATOM
      1 N         139.8710  140.3432  165.5955 N.am    1  UNL1       -0.2061
      2 C         140.3706  141.1518  164.4350 C.3     1  UNL1        0.1429
      3 C         139.2798  141.2103  163.4070 C.3     1  UNL1        0.1561
      4 C         138.1030  141.1816  162.4773 C.3     1  UNL1        0.0425
      5 C         138.1736  141.8884  161.1562 C.3     1  UNL1        0.0160
      6 C         139.4209  142.6239  160.7648 C.3     1  UNL1        0.1122
      7 C         140.5976  142.6527  161.6945 C.3     1  UNL1        0.0160
      8 C         140.5271  141.9458  163.0156 C.3     1  UNL1        0.0425
      9 O         138.1061  140.4378  163.9321 O.3     1  UNL1       -0.4398
     10 C         138.4715  139.9019  165.2847 C.2     1  UNL1        0.4097
     11 O         137.5918  139.0707  166.1708 O.2     1  UNL1       -0.2258
     12 C         139.4914  143.3308  159.4436 C.2     1  UNL1        0.3506
     13 N         140.0041  144.7216  159.2140 N.2     1  UNL1       -0.0350
     14 C         139.8911  145.0213  157.7486 C.2     1  UNL1        0.2348
     15 C         140.2434  146.2362  156.9425 C.2     1  UNL1        0.0869
     16 C         140.0132  146.2455  155.4602 C.2     1  UNL1        0.1468
     17 C         139.4308  145.0399  154.7842 C.2     1  UNL1        0.0200
     18 C         139.0785  143.8249  155.5903 C.3     1  UNL1        0.1068
     19 C         139.3086  143.8156  157.0724 C.2     1  UNL1        0.2176
     20 N         139.0616  142.7709  158.1200 N.2     1  UNL1       -0.0389
     21 O         140.3655  147.4604  154.6541 O.2     1  UNL1       -0.4047
     22 C         139.5350  148.7042  154.7702 C.3     1  UNL1        0.5753
     23 F         138.7046  149.9479  154.8862 F       1  UNL1       -0.1328
     24 F         140.7111  149.5296  154.3394 F       1  UNL1       -0.1328
     25 F         138.3590  147.8788  155.2009 F       1  UNL1       -0.1328
     26 C         140.1182  140.1147  170.7807 C.3     1  UNL1        0.0521
     27 C         140.7601  139.9165  169.4396 C.ar    1  UNL1        0.0608
     28 C         142.1677  139.4057  169.3499 C.ar    1  UNL1        0.0148
     29 C         142.8097  139.2075  168.0088 C.ar    1  UNL1        0.0041
     30 C         142.0441  139.5200  166.7573 C.ar    1  UNL1        0.0348
     31 C         140.6366  140.0307  166.8469 C.ar    1  UNL1        0.1396
     32 N         139.9946  140.2289  168.1880 N.ar    1  UNL1       -0.2345
@<TRIPOS>BOND
     1    26    27    1
     2    27    28   ar
     3    28    29   ar
     4    29    30   ar
     5    30    31   ar
     6    31     1    1
     7     1     2    1
     8     3     2    1
     9     3     4    1
    10     4     5    1
    11     5     6    1
    12     6    12    1
    13    12    13    2
    14    13    14    1
    15    14    15    2
    16    15    16    1
    17    16    21    1
    18    21    22    1
    19    22    23    1
    20    22    24    1
    21    22    25    1
    22    16    17    2
    23    17    18    1
    24    18    19    1
    25    19    20    2
    26     6     7    1
    27     7     8    1
    28     3     9    1
    29     9    10    1
    30    10    11    2
    31    31    32   ar
    32    32    27   ar
    33    10     1   am
    34     8     3    1
    35    20    12    1
    36    19    14    1
@<TRIPOS>MOLECULE
*****
 32 36 0 0 0
SMALL
GASTEIGER

@<TRIPOS>ATOM
      1 N         139.7481  139.9764  167.2726 N.am    1  UNL1       -0.2061
      2 C         140.4249  140.0618  165.9367 C.3     1  UNL1        0.1429
      3 C         139.6455  139.2230  164.9676 C.3     1  UNL1        0.1561
      4 C         138.7695  138.3510  164.1179 C.3     1  UNL1        0.0425
      5 C         139.0920  138.1511  162.6667 C.3     1  UNL1        0.0160
      6 C         140.2905  138.8233  162.0652 C.3     1  UNL1        0.1122
      7 C         141.1665  139.6954  162.9150 C.3     1  UNL1        0.0160
      8 C         140.8440  139.8952  164.3662 C.3     1  UNL1        0.0425
      9 O         138.4869  138.6192  165.7046 O.3     1  UNL1       -0.4398
     10 C         138.5503  139.0848  167.1292 C.2     1  UNL1        0.4097
     11 O         137.5855  138.7224  168.2190 O.2     1  UNL1       -0.2258
     12 C         140.6130  138.6235  160.6139 C.2     1  UNL1        0.3506
     13 N         141.8404  137.9568  160.0672 N.2     1  UNL1       -0.0350
     14 C         141.7506  137.9765  158.5700 C.2     1  UNL1        0.2348
     15 C         142.6713  137.4640  157.5025 C.2     1  UNL1        0.0869
     16 C         142.3090  137.6303  156.0563 C.2     1  UNL1        0.1468
     17 C         141.0261  138.3092  155.6778 C.2     1  UNL1        0.0200
     18 C         140.1055  138.8217  156.7454 C.3     1  UNL1        0.1068
     19 C         140.4676  138.6553  158.1914 C.2     1  UNL1        0.2176
     20 N         139.7646  139.0552  159.4547 N.2     1  UNL1       -0.0389
     21 O         143.2297  137.1178  154.9888 O.2     1  UNL1       -0.4047
     22 C         143.1054  135.7026  154.5071 C.3     1  UNL1        0.5753
     23 F         142.9811  134.2875  154.0255 F       1  UNL1       -0.1328
     24 F         144.0606  135.2557  155.5737 F       1  UNL1       -0.1328
     25 F         142.1501  136.1496  153.4405 F       1  UNL1       -0.1328
     26 C         140.3650  144.3244  170.0500 C.3     1  UNL1        0.0521
     27 C         140.4996  142.8362  169.9196 C.ar    1  UNL1        0.0608
     28 C         141.0774  142.0336  171.0475 C.ar    1  UNL1        0.0148
     29 C         141.2121  140.5454  170.9171 C.ar    1  UNL1        0.0041
     30 C         140.7690  139.8596  169.6587 C.ar    1  UNL1        0.0348
     31 C         140.1912  140.6621  168.5308 C.ar    1  UNL1        0.1396
     32 N         140.0566  142.1503  168.6613 N.ar    1  UNL1       -0.2345
@<TRIPOS>BOND
     1    26    27    1
     2    27    28   ar
     3    28    29   ar
     4    29    30   ar
     5    30    31   ar
     6    31     1    1
     7     1     2    1
     8     3     2    1
     9     3     4    1
    10     4     5    1
    11     5     6    1
    12     6    12    1
    13    12    13    2
    14    13    14    1
    15    14    15    2
    16    15    16    1
    17    16    21    1
    18    21    22    1
    19    22    23    1
    20    22    24    1
    21    22    25    1
    22    16    17    2
    23    17    18    1
    24    18    19    1
    25    19    20    2
    26     6     7    1
    27     7     8    1
    28     3     9    1
    29     9    10    1
    30    10    11    2
    31    31    32   ar
    32    32    27   ar
    33    10     1   am
    34     8     3    1
    35    20    12    1
    36    19    14    1
@<TRIPOS>MOLECULE
*****
 32 36 0 0 0
SMALL
GASTEIGER

@<TRIPOS>ATOM
      1 N         141.8998  140.4375  166.8458 N.am    1  UNL1       -0.2061
      2 C         141.8601  140.9347  165.4312 C.3     1  UNL1        0.1429
      3 C         142.8599  140.1489  164.6354 C.3     1  UNL1        0.1561
      4 C         143.8924  139.2861  163.9726 C.3     1  UNL1        0.0425
      5 C         144.1834  139.4537  162.5107 C.3     1  UNL1        0.0160
      6 C         143.4420  140.4841  161.7117 C.3     1  UNL1        0.1122
      7 C         142.4095  141.3470  162.3745 C.3     1  UNL1        0.0160
      8 C         142.1184  141.1793  163.8364 C.3     1  UNL1        0.0425
      9 O         143.5174  139.1660  165.5583 O.3     1  UNL1       -0.4398
     10 C         142.9240  139.3444  166.9245 C.2     1  UNL1        0.4097
     11 O         143.2905  138.5663  168.1534 O.2     1  UNL1       -0.2258
     12 C         143.7331  140.6517  160.2497 C.2     1  UNL1        0.3506
     13 N         144.4914  141.7858  159.6260 N.2     1  UNL1       -0.0350
     14 C         144.5439  141.5496  158.1457 C.2     1  UNL1        0.2348
     15 C         145.1589  142.3347  157.0252 C.2     1  UNL1        0.0869
     16 C         145.0481  141.8398  155.6135 C.2     1  UNL1        0.1468
     17 C         144.3223  140.5598  155.3223 C.2     1  UNL1        0.0200
     18 C         143.7073  139.7747  156.4428 C.3     1  UNL1        0.1068
     19 C         143.8181  140.2696  157.8544 C.2     1  UNL1        0.2176
     20 N         143.3170  139.7147  159.1548 N.2     1  UNL1       -0.0389
     21 O         145.6631  142.6249  154.4931 O.2     1  UNL1       -0.4047
     22 C         147.1550  142.6832  154.3488 C.3     1  UNL1        0.5753
     23 F         148.6469  142.7416  154.2046 F       1  UNL1       -0.1328
     24 F         147.1556  144.0713  154.9173 F       1  UNL1       -0.1328
     25 F         147.1544  141.2952  153.7803 F       1  UNL1       -0.1328
     26 C         140.4803  144.3030  170.0149 C.3     1  UNL1        0.0521
     27 C         140.3526  142.8772  169.5668 C.ar    1  UNL1        0.0608
     28 C         139.3873  141.9583  170.2553 C.ar    1  UNL1        0.0148
     29 C         139.2596  140.5325  169.8072 C.ar    1  UNL1        0.0041
     30 C         140.0971  140.0256  168.6707 C.ar    1  UNL1        0.0348
     31 C         141.0623  140.9444  167.9823 C.ar    1  UNL1        0.1396
     32 N         141.1900  142.3702  168.4303 N.ar    1  UNL1       -0.2345
@<TRIPOS>BOND
     1    26    27    1
     2    27    28   ar
     3    28    29   ar
     4    29    30   ar
     5    30    31   ar
     6    31     1    1
     7     1     2    1
     8     3     2    1
     9     3     4    1
    10     4     5    1
    11     5     6    1
    12     6    12    1
    13    12    13    2
    14    13    14    1
    15    14    15    2
    16    15    16    1
    17    16    21    1
    18    21    22    1
    19    22    23    1
    20    22    24    1
    21    22    25    1
    22    16    17    2
    23    17    18    1
    24    18    19    1
    25    19    20    2
    26     6     7    1
    27     7     8    1
    28     3     9    1
    29     9    10    1
    30    10    11    2
    31    31    32   ar
    32    32    27   ar
    33    10     1   am
    34     8     3    1
    35    20    12    1
    36    19    14    1
@<TRIPOS>MOLECULE
*****
 32 36 0 0 0
SMALL
GASTEIGER

@<TRIPOS>ATOM
      1 N         139.5984  140.5287  166.9618 N.am    1  UNL1       -0.2061
      2 C         139.9178  141.2839  165.7058 C.3     1  UNL1        0.1429
      3 C         139.0053  140.7894  164.6228 C.3     1  UNL1        0.1561
      4 C         138.0317  140.1978  163.6470 C.3     1  UNL1        0.0425
      5 C         138.0069  140.6795  162.2268 C.3     1  UNL1        0.0160
      6 C         138.9557  141.7529  161.7822 C.3     1  UNL1        0.1122
      7 C         139.9293  142.3445  162.7579 C.3     1  UNL1        0.0160
      8 C         139.9541  141.8628  164.1782 C.3     1  UNL1        0.0425
      9 O         138.1219  139.7285  165.2095 O.3     1  UNL1       -0.4398
     10 C         138.4885  139.5673  166.6551 C.2     1  UNL1        0.4097
     11 O         137.8561  138.6126  167.6239 O.2     1  UNL1       -0.2258
     12 C         138.9309  142.2347  160.3618 C.2     1  UNL1        0.3506
     13 N         139.5387  143.5076  159.8518 N.2     1  UNL1       -0.0350
     14 C         139.2773  143.5877  158.3770 C.2     1  UNL1        0.2348
     15 C         139.6405  144.6167  157.3477 C.2     1  UNL1        0.0869
     16 C         139.2343  144.4221  155.9168 C.2     1  UNL1        0.1468
     17 C         138.4650  143.1986  155.5153 C.2     1  UNL1        0.0200
     18 C         138.1018  142.1697  156.5446 C.3     1  UNL1        0.1068
     19 C         138.5080  142.3642  157.9754 C.2     1  UNL1        0.2176
     20 N         138.2939  141.5280  159.2021 N.2     1  UNL1       -0.0389
     21 O         139.5974  145.4510  154.8875 O.2     1  UNL1       -0.4047
     22 C         139.0972  146.8585  155.0251 C.3     1  UNL1        0.5753
     23 F         138.5971  148.2659  155.1626 F       1  UNL1       -0.1328
     24 F         140.5056  147.3411  155.2081 F       1  UNL1       -0.1328
     25 F         137.6888  146.3759  154.8420 F       1  UNL1       -0.1328
     26 C         143.6626  142.1373  169.7715 C.3     1  UNL1        0.0521
     27 C         142.3030  141.5083  169.6959 C.ar    1  UNL1        0.0608
     28 C         141.6158  141.0545  170.9497 C.ar    1  UNL1        0.0148
     29 C         140.2561  140.4255  170.8741 C.ar    1  UNL1        0.0041
     30 C         139.5837  140.2502  169.5448 C.ar    1  UNL1        0.0348
     31 C         140.2708  140.7039  168.2911 C.ar    1  UNL1        0.1396
     32 N         141.6304  141.3330  168.3666 N.ar    1  UNL1       -0.2345
@<TRIPOS>BOND
     1    26    27    1
     2    27    28   ar
     3    28    29   ar
     4    29    30   ar
     5    30    31   ar
     6    31     1    1
     7     1     2    1
     8     3     2    1
     9     3     4    1
    10     4     5    1
    11     5     6    1
    12     6    12    1
    13    12    13    2
    14    13    14    1
    15    14    15    2
    16    15    16    1
    17    16    21    1
    18    21    22    1
    19    22    23    1
    20    22    24    1
    21    22    25    1
    22    16    17    2
    23    17    18    1
    24    18    19    1
    25    19    20    2
    26     6     7    1
    27     7     8    1
    28     3     9    1
    29     9    10    1
    30    10    11    2
    31    31    32   ar
    32    32    27   ar
    33    10     1   am
    34     8     3    1
    35    20    12    1
    36    19    14    1
@<TRIPOS>MOLECULE
*****
 32 36 0 0 0
SMALL
GASTEIGER

@<TRIPOS>ATOM
      1 N         142.9691  137.3666  157.1939 N.am    1  UNL1       -0.2061
      2 C         142.7039  137.3948  158.6700 C.3     1  UNL1        0.1429
      3 C         143.0789  138.7538  159.1825 C.3     1  UNL1        0.1561
      4 C         143.4937  140.1483  159.5474 C.3     1  UNL1        0.0425
      5 C         143.3900  140.6138  160.9695 C.3     1  UNL1        0.0160
      6 C         142.8715  139.6847  162.0268 C.3     1  UNL1        0.1122
      7 C         142.4567  138.2902  161.6620 C.3     1  UNL1        0.0160
      8 C         142.5604  137.8247  160.2399 C.3     1  UNL1        0.0425
      9 O         143.5758  139.5655  158.0231 O.3     1  UNL1       -0.4398
     10 C         143.5080  138.7082  156.7941 C.2     1  UNL1        0.4097
     11 O         143.9086  139.1202  155.4085 O.2     1  UNL1       -0.2258
     12 C         142.7677  140.1503  163.4490 C.2     1  UNL1        0.3506
     13 N         141.9941  139.4762  164.5432 N.2     1  UNL1       -0.0350
     14 C         142.1677  140.2809  165.7971 C.2     1  UNL1        0.2348
     15 C         141.6375  140.0984  167.1883 C.2     1  UNL1        0.0869
     16 C         141.9881  141.0873  168.2604 C.2     1  UNL1        0.1468
     17 C         142.8690  142.2587  167.9411 C.2     1  UNL1        0.0200
     18 C         143.3992  142.4412  166.5499 C.3     1  UNL1        0.1068
     19 C         143.0486  141.4524  165.4779 C.2     1  UNL1        0.2176
     20 N         143.4194  141.3716  164.0267 N.2     1  UNL1       -0.0389
     21 O         141.4579  140.9048  169.6516 O.2     1  UNL1       -0.4047
     22 C         139.9775  140.8693  169.8914 C.3     1  UNL1        0.5753
     23 F         138.4973  140.8338  170.1311 F       1  UNL1       -0.1328
     24 F         140.1289  139.5747  170.6337 F       1  UNL1       -0.1328
     25 F         139.8262  142.1639  169.1491 F       1  UNL1       -0.1328
     26 C         140.7568  135.3545  152.9445 C.3     1  UNL1        0.0521
     27 C         141.6301  135.1955  154.1537 C.ar    1  UNL1        0.0608
     28 C         142.2707  133.8712  154.4473 C.ar    1  UNL1        0.0148
     29 C         143.1440  133.7122  155.6564 C.ar    1  UNL1        0.0041
     30 C         143.3768  134.8773  156.5720 C.ar    1  UNL1        0.0348
     31 C         142.7363  136.2015  156.2784 C.ar    1  UNL1        0.1396
     32 N         141.8630  136.3606  155.0693 N.ar    1  UNL1       -0.2345
@<TRIPOS>BOND
     1    26    27    1
     2    27    28   ar
     3    28    29   ar
     4    29    30   ar
     5    30    31   ar
     6    31     1    1
     7     1     2    1
     8     3     2    1
     9     3     4    1
    10     4     5    1
    11     5     6    1
    12     6    12    1
    13    12    13    2
    14    13    14    1
    15    14    15    2
    16    15    16    1
    17    16    21    1
    18    21    22    1
    19    22    23    1
    20    22    24    1
    21    22    25    1
    22    16    17    2
    23    17    18    1
    24    18    19    1
    25    19    20    2
    26     6     7    1
    27     7     8    1
    28     3     9    1
    29     9    10    1
    30    10    11    2
    31    31    32   ar
    32    32    27   ar
    33    10     1   am
    34     8     3    1
    35    20    12    1
    36    19    14    1
