@<TRIPOS>MOLECULE
*****
 32 35 0 0 0
SMALL
GASTEIGER

@<TRIPOS>ATOM
      1 N         138.2236  139.7922  163.3707 N.3     1  UNL1       -0.2715
      2 N         139.6285  140.4664  167.5922 N.pl3   1  UNL1       -0.2784
      3 C         140.2227  141.2620  166.4680 C.3     1  UNL1        0.0950
      4 C         139.7544  141.0373  165.0608 C.3     1  UNL1        0.0375
      5 C         138.6919  140.0169  164.7779 C.3     1  UNL1        0.0610
      6 C         138.0978  139.2213  165.9022 C.3     1  UNL1        0.0375
      7 C         138.5661  139.4461  167.3093 C.3     1  UNL1        0.0950
      8 N         142.2420  142.3540  171.7741 N.pl3   1  UNL1       -0.3277
      9 C         141.2981  141.5588  170.9217 C.ar    1  UNL1        0.2131
     10 N         140.3368  140.5151  171.4082 N.ar    1  UNL1       -0.1121
     11 N         139.5944  139.9789  170.2203 N.ar    1  UNL1       -0.1117
     12 C         140.0968  140.6912  168.9995 C.ar    1  UNL1        0.2194
     13 N         141.1498  141.6676  169.4330 N.ar    1  UNL1       -0.2979
     14 H         142.2661  142.2102  172.7478 H       1  UNL1        0.1451
     15 H         142.8373  143.0198  171.3600 H       1  UNL1        0.1451
     16 H         141.6549  142.2734  168.8439 H       1  UNL1        0.1713
     17 C         138.4961  138.4839  162.6895 C.3     1  UNL1        0.0768
     18 C         139.5154  137.5408  163.2568 C.3     1  UNL1        0.0437
     19 C         140.9078  138.0223  163.5385 C.ar    1  UNL1       -0.0207
     20 C         141.5114  137.8188  164.8965 C.ar    1  UNL1       -0.0034
     21 C         142.9038  138.3002  165.1781 C.ar    1  UNL1        0.0111
     22 C         143.6927  138.9852  164.1017 C.ar    1  UNL1        0.0577
     23 CL        145.0851  139.4666  164.3833 Cl      1  UNL1       -0.0822
     24 C         143.0891  139.1887  162.7437 C.ar    1  UNL1        0.0111
     25 C         141.6966  138.7072  162.4621 C.ar    1  UNL1       -0.0034
     26 C         137.4828  140.8758  162.6447 C.3     1  UNL1        0.1019
     27 C         138.1394  142.2032  162.4065 C.3     1  UNL1        0.1311
     28 C         137.6999  143.4078  163.1849 C.3     1  UNL1        0.0311
     29 C         138.3565  144.7353  162.9466 C.3     1  UNL1        0.0051
     30 C         139.4526  144.8581  161.9299 C.3     1  UNL1        0.0322
     31 C         139.8920  143.6536  161.1516 C.3     1  UNL1        0.1421
     32 O         139.2355  142.3261  161.3898 O.3     1  UNL1       -0.3548
@<TRIPOS>BOND
     1     8     9    1
     2     9    10   ar
     3    10    11   ar
     4    11    12   ar
     5    12     2    1
     6     2     3    1
     7     3     4    1
     8     4     5    1
     9     5     1    1
    10     1    17    1
    11    17    18    1
    12    18    19    1
    13    19    20   ar
    14    20    21   ar
    15    21    22   ar
    16    22    23    1
    17    22    24   ar
    18    24    25   ar
    19     1    26    1
    20    26    27    1
    21    27    28    1
    22    28    29    1
    23    29    30    1
    24    30    31    1
    25    31    32    1
    26     5     6    1
    27     6     7    1
    28    12    13   ar
    29    13     9   ar
    30     7     2    1
    31    25    19   ar
    32    32    27    1
    33     8    14    1
    34     8    15    1
    35    13    16    1
@<TRIPOS>MOLECULE
*****
 32 35 0 0 0
SMALL
GASTEIGER

@<TRIPOS>ATOM
      1 N         140.1922  138.0113  164.3910 N.3     1  UNL1       -0.2715
      2 N         141.2253  140.4546  168.0259 N.pl3   1  UNL1       -0.2784
      3 C         139.7932  140.3027  167.6066 C.3     1  UNL1        0.0950
      4 C         139.4488  139.4883  166.3950 C.3     1  UNL1        0.0375
      5 C         140.5366  138.8258  165.6026 C.3     1  UNL1        0.0610
      6 C         141.9688  138.9777  166.0219 C.3     1  UNL1        0.0375
      7 C         142.3131  139.7921  167.2336 C.3     1  UNL1        0.0950
      8 N         143.4818  144.0098  171.2118 N.pl3   1  UNL1       -0.3277
      9 C         142.6069  142.9032  170.7020 C.ar    1  UNL1        0.2131
     10 N         141.5924  142.1414  171.5024 N.ar    1  UNL1       -0.1121
     11 N         140.9514  141.1315  170.5973 N.ar    1  UNL1       -0.1117
     12 C         141.5697  141.2691  169.2376 C.ar    1  UNL1        0.2194
     13 N         142.5929  142.3640  169.3023 N.ar    1  UNL1       -0.2979
     14 H         143.4175  144.2948  172.1520 H       1  UNL1        0.1451
     15 H         144.1204  144.4512  170.6063 H       1  UNL1        0.1451
     16 H         143.1563  142.6744  168.5570 H       1  UNL1        0.1713
     17 C         138.7832  137.9905  163.8770 C.3     1  UNL1        0.0768
     18 C         138.3921  138.8674  162.7246 C.3     1  UNL1        0.0437
     19 C         138.5714  140.3537  162.8185 C.ar    1  UNL1       -0.0207
     20 C         137.4348  141.2187  163.2765 C.ar    1  UNL1       -0.0034
     21 C         137.6140  142.7050  163.3704 C.ar    1  UNL1        0.0111
     22 C         138.9299  143.3262  163.0063 C.ar    1  UNL1        0.0577
     23 CL        139.1092  144.8125  163.1002 Cl      1  UNL1       -0.0822
     24 C         140.0665  142.4611  162.5482 C.ar    1  UNL1        0.0111
     25 C         139.8872  140.9748  162.4543 C.ar    1  UNL1       -0.0034
     26 C         141.2569  137.2178  163.6933 C.3     1  UNL1        0.1019
     27 C         141.9420  137.7823  162.4842 C.3     1  UNL1        0.1311
     28 C         143.2952  138.4159  162.6163 C.3     1  UNL1        0.0311
     29 C         143.9803  138.9804  161.4072 C.3     1  UNL1        0.0051
     30 C         143.3122  138.9114  160.0660 C.3     1  UNL1        0.0322
     31 C         141.9590  138.2779  159.9338 C.3     1  UNL1        0.1421
     32 O         141.2739  137.7133  161.1429 O.3     1  UNL1       -0.3548
@<TRIPOS>BOND
     1     8     9    1
     2     9    10   ar
     3    10    11   ar
     4    11    12   ar
     5    12     2    1
     6     2     3    1
     7     3     4    1
     8     4     5    1
     9     5     1    1
    10     1    17    1
    11    17    18    1
    12    18    19    1
    13    19    20   ar
    14    20    21   ar
    15    21    22   ar
    16    22    23    1
    17    22    24   ar
    18    24    25   ar
    19     1    26    1
    20    26    27    1
    21    27    28    1
    22    28    29    1
    23    29    30    1
    24    30    31    1
    25    31    32    1
    26     5     6    1
    27     6     7    1
    28    12    13   ar
    29    13     9   ar
    30     7     2    1
    31    25    19   ar
    32    32    27    1
    33     8    14    1
    34     8    15    1
    35    13    16    1
@<TRIPOS>MOLECULE
*****
 32 35 0 0 0
SMALL
GASTEIGER

@<TRIPOS>ATOM
      1 N         138.6190  139.4274  164.3810 N.3     1  UNL1       -0.2715
      2 N         140.4976  141.1852  168.0730 N.pl3   1  UNL1       -0.2784
      3 C         139.4941  140.0774  168.1970 C.3     1  UNL1        0.0950
      4 C         138.8679  139.4915  166.9664 C.3     1  UNL1        0.0375
      5 C         139.2453  140.0134  165.6117 C.3     1  UNL1        0.0610
      6 C         140.2488  141.1213  165.4877 C.3     1  UNL1        0.0375
      7 C         140.8750  141.7072  166.7183 C.3     1  UNL1        0.0950
      8 N         143.5933  144.0381  171.2604 N.pl3   1  UNL1       -0.3277
      9 C         142.5468  143.0825  170.7687 C.ar    1  UNL1        0.2131
     10 N         141.6283  142.2632  171.6262 N.ar    1  UNL1       -0.1121
     11 N         140.7489  141.4528  170.7207 N.ar    1  UNL1       -0.1117
     12 C         141.1239  141.7712  169.3037 C.ar    1  UNL1        0.2194
     13 N         142.2350  142.7784  169.3334 N.ar    1  UNL1       -0.2979
     14 H         143.7236  144.1707  172.2272 H       1  UNL1        0.1451
     15 H         144.1498  144.5327  170.6163 H       1  UNL1        0.1451
     16 H         142.6813  143.1710  168.5485 H       1  UNL1        0.1713
     17 C         138.8538  137.9874  164.0330 C.3     1  UNL1        0.0768
     18 C         140.0797  137.5918  163.2643 C.3     1  UNL1        0.0437
     19 C         141.3787  138.3014  163.5071 C.ar    1  UNL1       -0.0207
     20 C         141.9005  139.2779  162.4952 C.ar    1  UNL1       -0.0034
     21 C         143.1996  139.9875  162.7380 C.ar    1  UNL1        0.0111
     22 C         143.9768  139.7205  163.9929 C.ar    1  UNL1        0.0577
     23 CL        145.2759  140.4300  164.2358 Cl      1  UNL1       -0.0822
     24 C         143.4550  138.7439  165.0049 C.ar    1  UNL1        0.0111
     25 C         142.1559  138.0344  164.7620 C.ar    1  UNL1       -0.0034
     26 C         137.7579  140.2815  163.4984 C.3     1  UNL1        0.1019
     27 C         138.2388  141.6342  163.0637 C.3     1  UNL1        0.1311
     28 C         137.5655  142.8712  163.5802 C.3     1  UNL1        0.0311
     29 C         138.0463  144.2239  163.1455 C.3     1  UNL1        0.0051
     30 C         139.2004  144.3397  162.1943 C.3     1  UNL1        0.0322
     31 C         139.8736  143.1028  161.6778 C.3     1  UNL1        0.1421
     32 O         139.3928  141.7500  162.1125 O.3     1  UNL1       -0.3548
@<TRIPOS>BOND
     1     8     9    1
     2     9    10   ar
     3    10    11   ar
     4    11    12   ar
     5    12     2    1
     6     2     3    1
     7     3     4    1
     8     4     5    1
     9     5     1    1
    10     1    17    1
    11    17    18    1
    12    18    19    1
    13    19    20   ar
    14    20    21   ar
    15    21    22   ar
    16    22    23    1
    17    22    24   ar
    18    24    25   ar
    19     1    26    1
    20    26    27    1
    21    27    28    1
    22    28    29    1
    23    29    30    1
    24    30    31    1
    25    31    32    1
    26     5     6    1
    27     6     7    1
    28    12    13   ar
    29    13     9   ar
    30     7     2    1
    31    25    19   ar
    32    32    27    1
    33     8    14    1
    34     8    15    1
    35    13    16    1
@<TRIPOS>MOLECULE
*****
 32 35 0 0 0
SMALL
GASTEIGER

@<TRIPOS>ATOM
      1 N         138.7504  143.6229  163.4247 N.3     1  UNL1       -0.2715
      2 N         140.0500  141.3303  167.0723 N.pl3   1  UNL1       -0.2784
      3 C         140.3869  142.7861  166.9420 C.3     1  UNL1        0.0950
      4 C         139.9537  143.5502  165.7261 C.3     1  UNL1        0.0375
      5 C         139.1836  142.8586  164.6406 C.3     1  UNL1        0.0610
      6 C         138.8466  141.4028  164.7708 C.3     1  UNL1        0.0375
      7 C         139.2798  140.6386  165.9867 C.3     1  UNL1        0.0950
      8 N         143.0410  138.7914  170.6063 N.pl3   1  UNL1       -0.3277
      9 C         141.8579  139.3991  169.9126 C.ar    1  UNL1        0.2131
     10 N         140.4414  139.3809  170.4058 N.ar    1  UNL1       -0.1121
     11 N         139.5918  140.1021  169.4019 N.ar    1  UNL1       -0.1117
     12 C         140.4831  140.5660  168.2882 C.ar    1  UNL1        0.2194
     13 N         141.8837  140.1315  168.6038 N.ar    1  UNL1       -0.2979
     14 H         142.9225  138.3284  171.4670 H       1  UNL1        0.1451
     15 H         143.9358  138.8557  170.2010 H       1  UNL1        0.1451
     16 H         142.6800  140.2978  168.0493 H       1  UNL1        0.1713
     17 C         139.2298  145.0281  163.2119 C.3     1  UNL1        0.0768
     18 C         140.4501  145.2863  162.3786 C.3     1  UNL1        0.0437
     19 C         141.7106  144.5150  162.6356 C.ar    1  UNL1       -0.0207
     20 C         141.9697  143.2343  161.8989 C.ar    1  UNL1       -0.0034
     21 C         143.2303  142.4631  162.1558 C.ar    1  UNL1        0.0111
     22 C         144.2318  142.9725  163.1496 C.ar    1  UNL1        0.0577
     23 CL        145.4924  142.2012  163.4065 Cl      1  UNL1       -0.0822
     24 C         143.9728  144.2532  163.8863 C.ar    1  UNL1        0.0111
     25 C         142.7121  145.0244  163.6292 C.ar    1  UNL1       -0.0034
     26 C         137.8378  142.9818  162.4216 C.3     1  UNL1        0.1019
     27 C         138.4001  142.4094  161.1543 C.3     1  UNL1        0.1311
     28 C         138.8112  140.9678  161.1000 C.3     1  UNL1        0.0311
     29 C         139.3735  140.3954  159.8327 C.3     1  UNL1        0.0051
     30 C         139.5248  141.2646  158.6196 C.3     1  UNL1        0.0322
     31 C         139.1137  142.7061  158.6738 C.3     1  UNL1        0.1421
     32 O         138.5514  143.2785  159.9411 O.3     1  UNL1       -0.3548
@<TRIPOS>BOND
     1     8     9    1
     2     9    10   ar
     3    10    11   ar
     4    11    12   ar
     5    12     2    1
     6     2     3    1
     7     3     4    1
     8     4     5    1
     9     5     1    1
    10     1    17    1
    11    17    18    1
    12    18    19    1
    13    19    20   ar
    14    20    21   ar
    15    21    22   ar
    16    22    23    1
    17    22    24   ar
    18    24    25   ar
    19     1    26    1
    20    26    27    1
    21    27    28    1
    22    28    29    1
    23    29    30    1
    24    30    31    1
    25    31    32    1
    26     5     6    1
    27     6     7    1
    28    12    13   ar
    29    13     9   ar
    30     7     2    1
    31    25    19   ar
    32    32    27    1
    33     8    14    1
    34     8    15    1
    35    13    16    1
@<TRIPOS>MOLECULE
*****
 32 35 0 0 0
SMALL
GASTEIGER

@<TRIPOS>ATOM
      1 N         139.0071  139.0425  163.0588 N.3     1  UNL1       -0.2715
      2 N         139.9085  140.1302  167.3314 N.pl3   1  UNL1       -0.2784
      3 C         140.7443  140.6951  166.2213 C.3     1  UNL1        0.0950
      4 C         140.4439  140.3325  164.7972 C.3     1  UNL1        0.0375
      5 C         139.3076  139.4050  164.4831 C.3     1  UNL1        0.0610
      6 C         138.4717  138.8402  165.5931 C.3     1  UNL1        0.0375
      7 C         138.7722  139.2027  167.0173 C.3     1  UNL1        0.0950
      8 N         142.1159  142.3263  171.5959 N.pl3   1  UNL1       -0.3277
      9 C         141.2236  141.5022  170.7157 C.ar    1  UNL1        0.2131
     10 N         140.1189  140.5991  171.1787 N.ar    1  UNL1       -0.1121
     11 N         139.4919  139.9752  169.9672 N.ar    1  UNL1       -0.1117
     12 C         140.2090  140.4927  168.7556 C.ar    1  UNL1        0.2194
     13 N         141.2792  141.4364  169.2182 N.ar    1  UNL1       -0.2979
     14 H         142.0011  142.3026  172.5734 H       1  UNL1        0.1451
     15 H         142.8163  142.8909  171.1960 H       1  UNL1        0.1451
     16 H         141.9078  141.9266  168.6404 H       1  UNL1        0.1713
     17 C         137.8657  139.7008  162.3421 C.3     1  UNL1        0.0768
     18 C         137.2800  140.9747  162.8753 C.3     1  UNL1        0.0437
     19 C         137.9902  142.2771  162.6538 C.ar    1  UNL1       -0.0207
     20 C         137.8445  143.3897  163.6492 C.ar    1  UNL1       -0.0034
     21 C         138.5547  144.6921  163.4277 C.ar    1  UNL1        0.0111
     22 C         139.4108  144.8820  162.2106 C.ar    1  UNL1        0.0577
     23 CL        140.1211  146.1845  161.9891 Cl      1  UNL1       -0.0822
     24 C         139.5566  143.7695  161.2152 C.ar    1  UNL1        0.0111
     25 C         138.8463  142.4670  161.4368 C.ar    1  UNL1       -0.0034
     26 C         139.8482  138.0216  162.3514 C.3     1  UNL1        0.1019
     27 C         141.1858  138.4082  161.7935 C.3     1  UNL1        0.1311
     28 C         141.3002  139.5790  160.8627 C.3     1  UNL1        0.0311
     29 C         142.6378  139.9657  160.3048 C.3     1  UNL1        0.0051
     30 C         143.8610  139.1815  160.6775 C.3     1  UNL1        0.0322
     31 C         143.7466  138.0107  161.6082 C.3     1  UNL1        0.1421
     32 O         142.4090  137.6241  162.1662 O.3     1  UNL1       -0.3548
@<TRIPOS>BOND
     1     8     9    1
     2     9    10   ar
     3    10    11   ar
     4    11    12   ar
     5    12     2    1
     6     2     3    1
     7     3     4    1
     8     4     5    1
     9     5     1    1
    10     1    17    1
    11    17    18    1
    12    18    19    1
    13    19    20   ar
    14    20    21   ar
    15    21    22   ar
    16    22    23    1
    17    22    24   ar
    18    24    25   ar
    19     1    26    1
    20    26    27    1
    21    27    28    1
    22    28    29    1
    23    29    30    1
    24    30    31    1
    25    31    32    1
    26     5     6    1
    27     6     7    1
    28    12    13   ar
    29    13     9   ar
    30     7     2    1
    31    25    19   ar
    32    32    27    1
    33     8    14    1
    34     8    15    1
    35    13    16    1
@<TRIPOS>MOLECULE
*****
 32 35 0 0 0
SMALL
GASTEIGER

@<TRIPOS>ATOM
      1 N         138.3565  142.8777  163.7547 N.3     1  UNL1       -0.2715
      2 N         140.1110  144.6963  160.0313 N.pl3   1  UNL1       -0.2784
      3 C         139.6713  143.2623  160.0301 C.3     1  UNL1        0.0950
      4 C         139.0865  142.6561  161.2712 C.3     1  UNL1        0.0375
      5 C         138.9413  143.4839  162.5136 C.3     1  UNL1        0.0610
      6 C         139.3811  144.9180  162.5149 C.3     1  UNL1        0.0375
      7 C         139.9659  145.5242  161.2737 C.3     1  UNL1        0.0950
      8 N         140.5695  147.0961  155.3503 N.pl3   1  UNL1       -0.3277
      9 C         140.9067  146.4057  156.6386 C.ar    1  UNL1        0.2131
     10 N         142.2853  146.0654  157.1220 N.ar    1  UNL1       -0.1121
     11 N         142.1550  145.3837  158.4518 N.ar    1  UNL1       -0.1117
     12 C         140.6959  145.3026  158.7902 C.ar    1  UNL1        0.2194
     13 N         139.9244  145.9342  157.6695 N.ar    1  UNL1       -0.2979
     14 H         141.2882  147.3688  154.7352 H       1  UNL1        0.1451
     15 H         139.6295  147.2766  155.1199 H       1  UNL1        0.1451
     16 H         138.9453  146.0236  157.6195 H       1  UNL1        0.1713
     17 C         138.5741  143.5355  165.0851 C.3     1  UNL1        0.0768
     18 C         139.9480  143.5768  165.6856 C.3     1  UNL1        0.0437
     19 C         140.7336  142.3094  165.8487 C.ar    1  UNL1       -0.0207
     20 C         141.4478  141.7130  164.6722 C.ar    1  UNL1       -0.0034
     21 C         142.2334  140.4457  164.8353 C.ar    1  UNL1        0.0111
     22 C         142.3047  139.7746  166.1750 C.ar    1  UNL1        0.0577
     23 CL        143.0903  138.5073  166.3381 Cl      1  UNL1       -0.0822
     24 C         141.5905  140.3710  167.3515 C.ar    1  UNL1        0.0111
     25 C         140.8049  141.6384  167.1884 C.ar    1  UNL1       -0.0034
     26 C         137.5540  141.6135  163.6655 C.3     1  UNL1        0.1019
     27 C         138.1776  140.3014  164.0389 C.3     1  UNL1        0.1311
     28 C         138.1277  139.8247  165.4603 C.3     1  UNL1        0.0311
     29 C         138.7513  138.5126  165.8337 C.3     1  UNL1        0.0051
     30 C         139.4248  137.6771  164.7856 C.3     1  UNL1        0.0322
     31 C         139.4746  138.1537  163.3643 C.3     1  UNL1        0.1421
     32 O         138.8510  139.4658  162.9908 O.3     1  UNL1       -0.3548
@<TRIPOS>BOND
     1     8     9    1
     2     9    10   ar
     3    10    11   ar
     4    11    12   ar
     5    12     2    1
     6     2     3    1
     7     3     4    1
     8     4     5    1
     9     5     1    1
    10     1    17    1
    11    17    18    1
    12    18    19    1
    13    19    20   ar
    14    20    21   ar
    15    21    22   ar
    16    22    23    1
    17    22    24   ar
    18    24    25   ar
    19     1    26    1
    20    26    27    1
    21    27    28    1
    22    28    29    1
    23    29    30    1
    24    30    31    1
    25    31    32    1
    26     5     6    1
    27     6     7    1
    28    12    13   ar
    29    13     9   ar
    30     7     2    1
    31    25    19   ar
    32    32    27    1
    33     8    14    1
    34     8    15    1
    35    13    16    1
@<TRIPOS>MOLECULE
*****
 32 35 0 0 0
SMALL
GASTEIGER

@<TRIPOS>ATOM
      1 N         144.5685  140.2672  164.1745 N.3     1  UNL1       -0.2715
      2 N         141.6997  140.9503  167.5735 N.pl3   1  UNL1       -0.2784
      3 C         141.8702  139.5744  167.0010 C.3     1  UNL1        0.0950
      4 C         142.8264  139.3467  165.8680 C.3     1  UNL1        0.0375
      5 C         143.6122  140.4949  165.3075 C.3     1  UNL1        0.0610
      6 C         143.4417  141.8709  165.8800 C.3     1  UNL1        0.0375
      7 C         142.4854  142.0985  167.0129 C.3     1  UNL1        0.0950
      8 N         138.9812  143.2683  171.4617 N.pl3   1  UNL1       -0.3277
      9 C         139.4938  142.2435  170.4937 C.ar    1  UNL1        0.2131
     10 N         139.0497  140.8134  170.4063 N.ar    1  UNL1       -0.1121
     11 N         139.8219  140.1550  169.3017 N.ar    1  UNL1       -0.1117
     12 C         140.7433  141.1781  168.7065 C.ar    1  UNL1        0.2194
     13 N         140.5406  142.4688  169.4432 N.ar    1  UNL1       -0.2979
     14 H         138.2893  143.0231  172.1177 H       1  UNL1        0.1451
     15 H         139.3367  144.1862  171.4410 H       1  UNL1        0.1451
     16 H         141.0117  143.3153  169.2680 H       1  UNL1        0.1713
     17 C         145.5594  141.3306  163.8042 C.3     1  UNL1        0.0768
     18 C         145.3162  142.1973  162.6042 C.3     1  UNL1        0.0437
     19 C         144.0970  143.0690  162.5433 C.ar    1  UNL1       -0.0207
     20 C         142.9687  142.7168  161.6199 C.ar    1  UNL1       -0.0034
     21 C         141.7495  143.5885  161.5590 C.ar    1  UNL1        0.0111
     22 C         141.6586  144.8124  162.4216 C.ar    1  UNL1        0.0577
     23 CL        140.4395  145.6840  162.3607 Cl      1  UNL1       -0.0822
     24 C         142.7870  145.1645  163.3450 C.ar    1  UNL1        0.0111
     25 C         144.0063  144.2927  163.4059 C.ar    1  UNL1       -0.0034
     26 C         144.5338  138.9760  163.4119 C.3     1  UNL1        0.1019
     27 C         143.5776  138.8055  162.2689 C.3     1  UNL1        0.1311
     28 C         144.0030  139.1624  160.8754 C.3     1  UNL1        0.0311
     29 C         143.0468  138.9919  159.7324 C.3     1  UNL1        0.0051
     30 C         141.6651  138.4644  159.9828 C.3     1  UNL1        0.0322
     31 C         141.2396  138.1076  161.3762 C.3     1  UNL1        0.1421
     32 O         142.1959  138.2781  162.5193 O.3     1  UNL1       -0.3548
@<TRIPOS>BOND
     1     8     9    1
     2     9    10   ar
     3    10    11   ar
     4    11    12   ar
     5    12     2    1
     6     2     3    1
     7     3     4    1
     8     4     5    1
     9     5     1    1
    10     1    17    1
    11    17    18    1
    12    18    19    1
    13    19    20   ar
    14    20    21   ar
    15    21    22   ar
    16    22    23    1
    17    22    24   ar
    18    24    25   ar
    19     1    26    1
    20    26    27    1
    21    27    28    1
    22    28    29    1
    23    29    30    1
    24    30    31    1
    25    31    32    1
    26     5     6    1
    27     6     7    1
    28    12    13   ar
    29    13     9   ar
    30     7     2    1
    31    25    19   ar
    32    32    27    1
    33     8    14    1
    34     8    15    1
    35    13    16    1
@<TRIPOS>MOLECULE
*****
 32 35 0 0 0
SMALL
GASTEIGER

@<TRIPOS>ATOM
      1 N         142.7478  138.5047  163.3843 N.3     1  UNL1       -0.2715
      2 N         142.5582  140.6576  167.3313 N.pl3   1  UNL1       -0.2784
      3 C         142.9459  139.2093  167.2848 C.3     1  UNL1        0.0950
      4 C         143.0091  138.4917  165.9692 C.3     1  UNL1        0.0375
      5 C         142.6846  139.2224  164.7000 C.3     1  UNL1        0.0610
      6 C         142.2969  140.6706  164.7465 C.3     1  UNL1        0.0375
      7 C         142.2337  141.3882  166.0621 C.3     1  UNL1        0.0950
      8 N         143.5212  144.0771  171.2378 N.pl3   1  UNL1       -0.3277
      9 C         142.9376  142.9470  170.4426 C.ar    1  UNL1        0.2131
     10 N         141.8576  142.0121  170.9007 N.ar    1  UNL1       -0.1121
     11 N         141.5841  141.0408  169.7909 N.ar    1  UNL1       -0.1117
     12 C         142.4950  141.3752  168.6470 C.ar    1  UNL1        0.2194
     13 N         143.3315  142.5534  169.0498 N.ar    1  UNL1       -0.2979
     14 H         143.1950  144.2578  172.1489 H       1  UNL1        0.1451
     15 H         144.2305  144.6381  170.8486 H       1  UNL1        0.1451
     16 H         144.0184  142.9913  168.4971 H       1  UNL1        0.1713
     17 C         141.6137  137.6210  162.9567 C.3     1  UNL1        0.0768
     18 C         140.6085  138.1197  161.9612 C.3     1  UNL1        0.0437
     19 C         139.8564  139.3901  162.2269 C.ar    1  UNL1       -0.0207
     20 C         138.6679  139.3807  163.1419 C.ar    1  UNL1       -0.0034
     21 C         137.9158  140.6510  163.4075 C.ar    1  UNL1        0.0111
     22 C         138.3523  141.9308  162.7581 C.ar    1  UNL1        0.0577
     23 CL        137.6003  143.2011  163.0238 Cl      1  UNL1       -0.0822
     24 C         139.5409  141.9402  161.8431 C.ar    1  UNL1        0.0111
     25 C         140.2929  140.6698  161.5775 C.ar    1  UNL1       -0.0034
     26 C         143.9452  138.6707  162.4962 C.3     1  UNL1        0.1019
     27 C         144.0591  139.8740  161.6079 C.3     1  UNL1        0.1311
     28 C         143.5807  139.8059  160.1878 C.3     1  UNL1        0.0311
     29 C         143.6946  141.0092  159.2996 C.3     1  UNL1        0.0051
     30 C         144.2869  142.2806  159.8313 C.3     1  UNL1        0.0322
     31 C         144.7653  142.3487  161.2512 C.3     1  UNL1        0.1421
     32 O         144.6514  141.1454  162.1396 O.3     1  UNL1       -0.3548
@<TRIPOS>BOND
     1     8     9    1
     2     9    10   ar
     3    10    11   ar
     4    11    12   ar
     5    12     2    1
     6     2     3    1
     7     3     4    1
     8     4     5    1
     9     5     1    1
    10     1    17    1
    11    17    18    1
    12    18    19    1
    13    19    20   ar
    14    20    21   ar
    15    21    22   ar
    16    22    23    1
    17    22    24   ar
    18    24    25   ar
    19     1    26    1
    20    26    27    1
    21    27    28    1
    22    28    29    1
    23    29    30    1
    24    30    31    1
    25    31    32    1
    26     5     6    1
    27     6     7    1
    28    12    13   ar
    29    13     9   ar
    30     7     2    1
    31    25    19   ar
    32    32    27    1
    33     8    14    1
    34     8    15    1
    35    13    16    1
@<TRIPOS>MOLECULE
*****
 32 35 0 0 0
SMALL
GASTEIGER

@<TRIPOS>ATOM
      1 N         143.2399  141.0400  165.3437 N.3     1  UNL1       -0.2715
      2 N         141.8272  143.4866  161.8411 N.pl3   1  UNL1       -0.2784
      3 C         140.8703  142.5810  162.5580 C.3     1  UNL1        0.0950
      4 C         141.3412  141.7654  163.7255 C.3     1  UNL1        0.0375
      5 C         142.7690  141.8556  164.1761 C.3     1  UNL1        0.0610
      6 C         143.7260  142.7613  163.4593 C.3     1  UNL1        0.0375
      7 C         143.2551  143.5768  162.2918 C.3     1  UNL1        0.0950
      8 N         141.7674  146.2319  157.3310 N.pl3   1  UNL1       -0.3277
      9 C         141.3288  145.5641  158.6005 C.ar    1  UNL1        0.2131
     10 N         139.9344  145.5504  159.1534 N.ar    1  UNL1       -0.1121
     11 N         139.9514  144.7706  160.4346 N.ar    1  UNL1       -0.1117
     12 C         141.3563  144.3022  160.6736 C.ar    1  UNL1        0.2194
     13 N         142.2075  144.7926  159.5401 N.ar    1  UNL1       -0.2979
     14 H         141.1128  146.7172  156.7786 H       1  UNL1        0.1451
     15 H         142.7098  146.1848  157.0502 H       1  UNL1        0.1451
     16 H         143.1734  144.6357  159.4317 H       1  UNL1        0.1713
     17 C         143.7254  139.6368  165.1313 C.3     1  UNL1        0.0768
     18 C         142.8004  138.4795  165.3661 C.3     1  UNL1        0.0437
     19 C         141.5708  138.3189  164.5222 C.ar    1  UNL1       -0.0207
     20 C         140.2120  138.4459  165.1447 C.ar    1  UNL1       -0.0034
     21 C         138.9824  138.2853  164.3008 C.ar    1  UNL1        0.0111
     22 C         139.1115  137.9978  162.8343 C.ar    1  UNL1        0.0577
     23 CL        137.8819  137.8373  161.9904 Cl      1  UNL1       -0.0822
     24 C         140.4703  137.8708  162.2117 C.ar    1  UNL1        0.0111
     25 C         141.7000  138.0314  163.0557 C.ar    1  UNL1       -0.0034
     26 C         143.2253  141.6277  166.7237 C.3     1  UNL1        0.1019
     27 C         142.3974  140.9921  167.8009 C.3     1  UNL1        0.1311
     28 C         140.9006  141.0700  167.7408 C.3     1  UNL1        0.0311
     29 C         140.0727  140.4343  168.8180 C.3     1  UNL1        0.0051
     30 C         140.7415  139.7207  169.9553 C.3     1  UNL1        0.0322
     31 C         142.2382  139.6428  170.0154 C.3     1  UNL1        0.1421
     32 O         143.0662  140.2785  168.9382 O.3     1  UNL1       -0.3548
@<TRIPOS>BOND
     1     8     9    1
     2     9    10   ar
     3    10    11   ar
     4    11    12   ar
     5    12     2    1
     6     2     3    1
     7     3     4    1
     8     4     5    1
     9     5     1    1
    10     1    17    1
    11    17    18    1
    12    18    19    1
    13    19    20   ar
    14    20    21   ar
    15    21    22   ar
    16    22    23    1
    17    22    24   ar
    18    24    25   ar
    19     1    26    1
    20    26    27    1
    21    27    28    1
    22    28    29    1
    23    29    30    1
    24    30    31    1
    25    31    32    1
    26     5     6    1
    27     6     7    1
    28    12    13   ar
    29    13     9   ar
    30     7     2    1
    31    25    19   ar
    32    32    27    1
    33     8    14    1
    34     8    15    1
    35    13    16    1
