@<TRIPOS>MOLECULE
*****
 33 36 0 0 0
SMALL
GASTEIGER

@<TRIPOS>ATOM
      1 N         143.5634  139.1018  163.2794 N.3     1  UNL1       -0.2700
      2 C         142.4670  138.0871  163.1442 C.3     1  UNL1        0.0897
      3 C         141.8544  137.8192  161.8014 C.3     1  UNL1        0.0897
      4 N         142.3382  138.5660  160.5939 N.3     1  UNL1       -0.2700
      5 C         143.4346  139.5807  160.7290 C.3     1  UNL1        0.0897
      6 C         144.0472  139.8486  162.0718 C.3     1  UNL1        0.0897
      7 C         144.1761  139.3697  164.6221 C.3     1  UNL1        0.0762
      8 C         143.3490  139.9770  165.7162 C.3     1  UNL1        0.0337
      9 C         143.3529  141.2897  164.9904 C.3     1  UNL1        0.0058
     10 C         143.3451  138.6642  166.4419 C.3     1  UNL1        0.0058
     11 C         140.3974  140.5545  168.3055 C.ar    1  UNL1        0.1479
     12 C         141.2245  139.9471  167.2114 C.ar    1  UNL1        0.0334
     13 C         142.5219  140.5843  166.8102 C.ar    1  UNL1       -0.0184
     14 C         142.9921  141.8287  167.5032 C.ar    1  UNL1       -0.0034
     15 C         142.1650  142.4361  168.5973 C.ar    1  UNL1        0.0130
     16 C         140.8676  141.7990  168.9984 C.ar    1  UNL1        0.1023
     17 C         138.2535  139.2277  167.6780 C.3     1  UNL1        0.2525
     18 O         139.1000  139.9174  168.7066 O.3     1  UNL1       -0.4708
     19 C         140.0405  142.4063  170.0925 C.1     1  UNL1        0.1035
     20 N         139.2133  143.0136  171.1866 N.1     1  UNL1       -0.1907
     21 C         141.7255  138.2981  159.2512 C.3     1  UNL1        0.0769
     22 C         140.3769  138.8629  158.9160 C.3     1  UNL1        0.0433
     23 C         139.8248  140.0087  159.7113 C.ar    1  UNL1       -0.0249
     24 C         140.2387  141.4138  159.3886 C.ar    1  UNL1       -0.0043
     25 C         139.6866  142.5596  160.1839 C.ar    1  UNL1        0.0059
     26 C         138.7207  142.3002  161.3018 C.ar    1  UNL1        0.0748
     27 C         138.3068  140.8950  161.6244 C.ar    1  UNL1        0.0233
     28 C         138.8589  139.7492  160.8292 C.ar    1  UNL1       -0.0260
     29 C         138.4450  138.3439  161.1518 C.3     1  UNL1        0.0305
     30 C         137.3455  140.9474  162.7746 C.3     1  UNL1        0.2352
     31 O         137.1652  142.3851  163.1628 O.3     1  UNL1       -0.4404
     32 C         138.0151  143.2211  162.2526 C.2     1  UNL1        0.3413
     33 O         138.1379  144.7157  162.2871 O.2     1  UNL1       -0.2449
@<TRIPOS>BOND
     1    17    18    1
     2    18    11    1
     3    11    12   ar
     4    12    13   ar
     5    13     8    1
     6     8     9    1
     7     8    10    1
     8     8     7    1
     9     7     1    1
    10     1     2    1
    11     2     3    1
    12     3     4    1
    13     4    21    1
    14    21    22    1
    15    22    23    1
    16    23    24   ar
    17    24    25   ar
    18    25    26   ar
    19    26    27   ar
    20    27    28   ar
    21    28    29    1
    22    27    30    1
    23    30    31    1
    24    31    32    1
    25    32    33    2
    26     4     5    1
    27     5     6    1
    28    13    14   ar
    29    14    15   ar
    30    15    16   ar
    31    16    19    1
    32    19    20    3
    33    16    11   ar
    34     6     1    1
    35    28    23   ar
    36    32    26    1
@<TRIPOS>MOLECULE
*****
 33 36 0 0 0
SMALL
GASTEIGER

@<TRIPOS>ATOM
      1 N         144.0381  139.5315  163.0993 N.3     1  UNL1       -0.2700
      2 C         144.4640  140.6666  162.2160 C.3     1  UNL1        0.0897
      3 C         144.1401  140.6397  160.7516 C.3     1  UNL1        0.0897
      4 N         143.3902  139.4778  160.1706 N.3     1  UNL1       -0.2700
      5 C         142.9642  138.3428  161.0538 C.3     1  UNL1        0.0897
      6 C         143.2882  138.3697  162.5183 C.3     1  UNL1        0.0897
      7 C         144.3620  139.5583  164.5637 C.3     1  UNL1        0.0762
      8 C         143.2574  139.6458  165.5747 C.3     1  UNL1        0.0337
      9 C         142.8751  140.9942  165.0403 C.3     1  UNL1        0.0058
     10 C         143.6397  138.2973  166.1090 C.3     1  UNL1        0.0058
     11 C         141.3746  139.9378  169.0559 C.ar    1  UNL1        0.1479
     12 C         142.4792  139.8503  168.0450 C.ar    1  UNL1        0.0334
     13 C         142.1528  139.7332  166.5856 C.ar    1  UNL1       -0.0184
     14 C         140.7217  139.7035  166.1373 C.ar    1  UNL1       -0.0034
     15 C         139.6170  139.7909  167.1483 C.ar    1  UNL1        0.0130
     16 C         139.9435  139.9081  168.6076 C.ar    1  UNL1        0.1023
     17 C         141.8457  141.4087  171.1452 C.3     1  UNL1        0.2525
     18 O         141.7010  140.0549  170.5154 O.3     1  UNL1       -0.4708
     19 C         138.8388  139.9955  169.6187 C.1     1  UNL1        0.1035
     20 N         137.7342  140.0829  170.6297 N.1     1  UNL1       -0.1907
     21 C         143.0662  139.4510  158.7062 C.3     1  UNL1        0.0769
     22 C         141.7248  139.9202  158.2261 C.3     1  UNL1        0.0433
     23 C         140.8345  140.7084  159.1406 C.ar    1  UNL1       -0.0249
     24 C         141.0404  142.1857  159.2981 C.ar    1  UNL1       -0.0043
     25 C         140.1501  142.9738  160.2126 C.ar    1  UNL1        0.0059
     26 C         139.0538  142.2845  160.9695 C.ar    1  UNL1        0.0748
     27 C         138.8479  140.8070  160.8120 C.ar    1  UNL1        0.0233
     28 C         139.7382  140.0189  159.8976 C.ar    1  UNL1       -0.0260
     29 C         139.5323  138.5415  159.7400 C.3     1  UNL1        0.0305
     30 C         137.6934  140.4047  161.6811 C.3     1  UNL1        0.2352
     31 O         137.1859  141.6334  162.3758 O.3     1  UNL1       -0.4404
     32 C         138.0267  142.7952  161.9360 C.2     1  UNL1        0.3413
     33 O         137.8681  144.2179  162.3840 O.2     1  UNL1       -0.2449
@<TRIPOS>BOND
     1    17    18    1
     2    18    11    1
     3    11    12   ar
     4    12    13   ar
     5    13     8    1
     6     8     9    1
     7     8    10    1
     8     8     7    1
     9     7     1    1
    10     1     2    1
    11     2     3    1
    12     3     4    1
    13     4    21    1
    14    21    22    1
    15    22    23    1
    16    23    24   ar
    17    24    25   ar
    18    25    26   ar
    19    26    27   ar
    20    27    28   ar
    21    28    29    1
    22    27    30    1
    23    30    31    1
    24    31    32    1
    25    32    33    2
    26     4     5    1
    27     5     6    1
    28    13    14   ar
    29    14    15   ar
    30    15    16   ar
    31    16    19    1
    32    19    20    3
    33    16    11   ar
    34     6     1    1
    35    28    23   ar
    36    32    26    1
@<TRIPOS>MOLECULE
*****
 33 36 0 0 0
SMALL
GASTEIGER

@<TRIPOS>ATOM
      1 N         141.2127  138.0945  163.4432 N.3     1  UNL1       -0.2700
      2 C         139.8315  137.5636  163.1968 C.3     1  UNL1        0.0897
      3 C         139.1019  137.9272  161.9376 C.3     1  UNL1        0.0897
      4 N         139.7533  138.8216  160.9249 N.3     1  UNL1       -0.2700
      5 C         141.1344  139.3525  161.1712 C.3     1  UNL1        0.0897
      6 C         141.8640  138.9890  162.4304 C.3     1  UNL1        0.0897
      7 C         141.9424  137.7310  164.7023 C.3     1  UNL1        0.0762
      8 C         142.1831  138.7707  165.7564 C.3     1  UNL1        0.0337
      9 C         140.7102  139.0474  165.8198 C.3     1  UNL1        0.0058
     10 C         143.6560  138.4940  165.6929 C.3     1  UNL1        0.0058
     11 C         142.3964  140.5328  169.3059 C.ar    1  UNL1        0.1479
     12 C         142.1557  139.4931  168.2519 C.ar    1  UNL1        0.0334
     13 C         142.4238  139.8103  166.8104 C.ar    1  UNL1       -0.0184
     14 C         142.9327  141.1672  166.4232 C.ar    1  UNL1       -0.0034
     15 C         143.1735  142.2069  167.4773 C.ar    1  UNL1        0.0130
     16 C         142.9053  141.8897  168.9187 C.ar    1  UNL1        0.1023
     17 C         140.7988  140.5530  171.3547 C.3     1  UNL1        0.2525
     18 O         142.1283  140.2156  170.7473 O.3     1  UNL1       -0.4708
     19 C         143.1460  142.9293  169.9728 C.1     1  UNL1        0.1035
     20 N         143.3867  143.9690  171.0270 N.1     1  UNL1       -0.1907
     21 C         139.0235  139.1851  159.6658 C.3     1  UNL1        0.0769
     22 C         138.2579  140.4726  159.5877 C.3     1  UNL1        0.0433
     23 C         138.3462  141.4669  160.7075 C.ar    1  UNL1       -0.0249
     24 C         137.5731  141.2418  161.9730 C.ar    1  UNL1       -0.0043
     25 C         137.6613  142.2359  163.0927 C.ar    1  UNL1        0.0059
     26 C         138.5229  143.4552  162.9470 C.ar    1  UNL1        0.0748
     27 C         139.2961  143.6802  161.6815 C.ar    1  UNL1        0.0233
     28 C         139.2078  142.6861  160.5617 C.ar    1  UNL1       -0.0260
     29 C         139.9810  142.9111  159.2962 C.3     1  UNL1        0.0305
     30 C         140.0566  144.9651  161.8253 C.3     1  UNL1        0.2352
     31 O         139.7534  145.5342  163.1796 O.3     1  UNL1       -0.4404
     32 C         138.8055  144.6010  163.8729 C.2     1  UNL1        0.3413
     33 O         138.2396  144.7818  165.2502 O.2     1  UNL1       -0.2449
@<TRIPOS>BOND
     1    17    18    1
     2    18    11    1
     3    11    12   ar
     4    12    13   ar
     5    13     8    1
     6     8     9    1
     7     8    10    1
     8     8     7    1
     9     7     1    1
    10     1     2    1
    11     2     3    1
    12     3     4    1
    13     4    21    1
    14    21    22    1
    15    22    23    1
    16    23    24   ar
    17    24    25   ar
    18    25    26   ar
    19    26    27   ar
    20    27    28   ar
    21    28    29    1
    22    27    30    1
    23    30    31    1
    24    31    32    1
    25    32    33    2
    26     4     5    1
    27     5     6    1
    28    13    14   ar
    29    14    15   ar
    30    15    16   ar
    31    16    19    1
    32    19    20    3
    33    16    11   ar
    34     6     1    1
    35    28    23   ar
    36    32    26    1
@<TRIPOS>MOLECULE
*****
 33 36 0 0 0
SMALL
GASTEIGER

@<TRIPOS>ATOM
      1 N         143.5872  139.5971  163.3606 N.3     1  UNL1       -0.2700
      2 C         142.7426  138.5404  164.0089 C.3     1  UNL1        0.0897
      3 C         142.2089  138.7524  165.3945 C.3     1  UNL1        0.0897
      4 N         142.5197  140.0211  166.1321 N.3     1  UNL1       -0.2700
      5 C         143.3642  141.0778  165.4839 C.3     1  UNL1        0.0897
      6 C         143.8980  140.8657  164.0981 C.3     1  UNL1        0.0897
      7 C         144.1210  139.3851  161.9749 C.3     1  UNL1        0.0762
      8 C         143.1841  139.0437  160.8544 C.3     1  UNL1        0.0337
      9 C         142.6809  140.4568  160.8447 C.3     1  UNL1        0.0058
     10 C         143.6874  137.6307  160.8641 C.3     1  UNL1        0.0058
     11 C         139.9057  138.8869  158.6236 C.ar    1  UNL1        0.1479
     12 C         140.8425  139.2283  159.7441 C.ar    1  UNL1        0.0334
     13 C         142.2473  138.7024  159.7339 C.ar    1  UNL1       -0.0184
     14 C         142.7151  137.8351  158.6030 C.ar    1  UNL1       -0.0034
     15 C         141.7782  137.4937  157.4823 C.ar    1  UNL1        0.0130
     16 C         140.3734  138.0196  157.4927 C.ar    1  UNL1        0.1023
     17 C         138.0146  140.2303  159.7938 C.3     1  UNL1        0.2525
     18 O         138.5009  139.4129  158.6339 O.3     1  UNL1       -0.4708
     19 C         139.4365  137.6783  156.3721 C.1     1  UNL1        0.1035
     20 N         138.4996  137.3370  155.2515 N.1     1  UNL1       -0.1907
     21 C         141.9859  140.2330  167.5177 C.3     1  UNL1        0.0769
     22 C         140.6341  140.8528  167.7141 C.3     1  UNL1        0.0433
     23 C         139.9695  141.5776  166.5812 C.ar    1  UNL1       -0.0249
     24 C         140.2440  143.0354  166.3599 C.ar    1  UNL1       -0.0043
     25 C         139.5796  143.7602  165.2271 C.ar    1  UNL1        0.0059
     26 C         138.6406  143.0270  164.3157 C.ar    1  UNL1        0.0748
     27 C         138.3661  141.5690  164.5370 C.ar    1  UNL1        0.0233
     28 C         139.0305  140.8442  165.6698 C.ar    1  UNL1       -0.0260
     29 C         138.7561  139.3863  165.8912 C.3     1  UNL1        0.0305
     30 C         137.4008  141.1138  163.4830 C.3     1  UNL1        0.2352
     31 O         137.0788  142.2904  162.6102 O.3     1  UNL1       -0.4404
     32 C         137.8450  143.4728  163.1248 C.2     1  UNL1        0.3413
     33 O         137.8199  144.8579  162.5495 O.2     1  UNL1       -0.2449
@<TRIPOS>BOND
     1    17    18    1
     2    18    11    1
     3    11    12   ar
     4    12    13   ar
     5    13     8    1
     6     8     9    1
     7     8    10    1
     8     8     7    1
     9     7     1    1
    10     1     2    1
    11     2     3    1
    12     3     4    1
    13     4    21    1
    14    21    22    1
    15    22    23    1
    16    23    24   ar
    17    24    25   ar
    18    25    26   ar
    19    26    27   ar
    20    27    28   ar
    21    28    29    1
    22    27    30    1
    23    30    31    1
    24    31    32    1
    25    32    33    2
    26     4     5    1
    27     5     6    1
    28    13    14   ar
    29    14    15   ar
    30    15    16   ar
    31    16    19    1
    32    19    20    3
    33    16    11   ar
    34     6     1    1
    35    28    23   ar
    36    32    26    1
@<TRIPOS>MOLECULE
*****
 33 36 0 0 0
SMALL
GASTEIGER

@<TRIPOS>ATOM
      1 N         141.3573  138.3369  161.4841 N.3     1  UNL1       -0.2700
      2 C         140.7600  138.8722  160.2165 C.3     1  UNL1        0.0897
      3 C         141.6274  139.5832  159.2205 C.3     1  UNL1        0.0897
      4 N         143.0921  139.7590  159.4920 N.3     1  UNL1       -0.2700
      5 C         143.6895  139.2237  160.7595 C.3     1  UNL1        0.0897
      6 C         142.8220  138.5127  161.7556 C.3     1  UNL1        0.0897
      7 C         140.4900  137.6259  162.4801 C.3     1  UNL1        0.0762
      8 C         140.2903  138.2052  163.8493 C.3     1  UNL1        0.0337
      9 C         141.3043  137.2480  164.4021 C.3     1  UNL1        0.0058
     10 C         139.2763  139.1624  163.2964 C.3     1  UNL1        0.0058
     11 C         141.0530  139.9570  167.3276 C.ar    1  UNL1        0.1479
     12 C         141.2527  139.3778  165.9585 C.ar    1  UNL1        0.0334
     13 C         140.0907  138.7845  165.2184 C.ar    1  UNL1       -0.0184
     14 C         138.7291  138.7705  165.8474 C.ar    1  UNL1       -0.0034
     15 C         138.5294  139.3498  167.2166 C.ar    1  UNL1        0.0130
     16 C         139.6914  139.9431  167.9567 C.ar    1  UNL1        0.1023
     17 C         142.5663  141.9963  167.8773 C.3     1  UNL1        0.2525
     18 O         142.2151  140.5504  168.0678 O.3     1  UNL1       -0.4708
     19 C         139.4918  140.5224  169.3258 C.1     1  UNL1        0.1035
     20 N         139.2922  141.1017  170.6950 N.1     1  UNL1       -0.1907
     21 C         143.9594  140.4700  158.4959 C.3     1  UNL1        0.0769
     22 C         144.2904  141.9201  158.6898 C.3     1  UNL1        0.0433
     23 C         143.3066  142.8304  159.3634 C.ar    1  UNL1       -0.0249
     24 C         142.1405  143.3758  158.5936 C.ar    1  UNL1       -0.0043
     25 C         141.1568  144.2860  159.2672 C.ar    1  UNL1        0.0059
     26 C         141.3392  144.6509  160.7106 C.ar    1  UNL1        0.0748
     27 C         142.5053  144.1055  161.4805 C.ar    1  UNL1        0.0233
     28 C         143.4891  143.1953  160.8070 C.ar    1  UNL1       -0.0260
     29 C         144.6552  142.6499  161.5768 C.3     1  UNL1        0.0305
     30 C         142.4257  144.6371  162.8809 C.3     1  UNL1        0.2352
     31 O         141.2103  145.5110  162.9765 O.3     1  UNL1       -0.4404
     32 C         140.5388  145.5196  161.6352 C.2     1  UNL1        0.3413
     33 O         139.2868  146.2657  161.2808 O.2     1  UNL1       -0.2449
@<TRIPOS>BOND
     1    17    18    1
     2    18    11    1
     3    11    12   ar
     4    12    13   ar
     5    13     8    1
     6     8     9    1
     7     8    10    1
     8     8     7    1
     9     7     1    1
    10     1     2    1
    11     2     3    1
    12     3     4    1
    13     4    21    1
    14    21    22    1
    15    22    23    1
    16    23    24   ar
    17    24    25   ar
    18    25    26   ar
    19    26    27   ar
    20    27    28   ar
    21    28    29    1
    22    27    30    1
    23    30    31    1
    24    31    32    1
    25    32    33    2
    26     4     5    1
    27     5     6    1
    28    13    14   ar
    29    14    15   ar
    30    15    16   ar
    31    16    19    1
    32    19    20    3
    33    16    11   ar
    34     6     1    1
    35    28    23   ar
    36    32    26    1
@<TRIPOS>MOLECULE
*****
 33 36 0 0 0
SMALL
GASTEIGER

@<TRIPOS>ATOM
      1 N         144.4491  140.5094  162.8742 N.3     1  UNL1       -0.2700
      2 C         143.8631  139.3672  162.0983 C.3     1  UNL1        0.0897
      3 C         143.5540  139.5316  160.6397 C.3     1  UNL1        0.0897
      4 N         143.8309  140.8382  159.9570 N.3     1  UNL1       -0.2700
      5 C         144.4169  141.9804  160.7328 C.3     1  UNL1        0.0897
      6 C         144.7260  141.8159  162.1914 C.3     1  UNL1        0.0897
      7 C         144.7582  140.3450  164.3328 C.3     1  UNL1        0.0762
      8 C         143.6428  140.2889  165.3341 C.3     1  UNL1        0.0337
      9 C         143.7972  138.7995  165.4225 C.3     1  UNL1        0.0058
     10 C         143.4884  141.7783  165.2456 C.3     1  UNL1        0.0058
     11 C         140.0015  139.9564  166.8767 C.ar    1  UNL1        0.1479
     12 C         141.1168  140.0126  165.8753 C.ar    1  UNL1        0.0334
     13 C         142.5274  140.2328  166.3354 C.ar    1  UNL1       -0.0184
     14 C         142.8226  140.3968  167.7969 C.ar    1  UNL1       -0.0034
     15 C         141.7072  140.3407  168.7983 C.ar    1  UNL1        0.0130
     16 C         140.2966  140.1205  168.3382 C.ar    1  UNL1        0.1023
     17 C         137.9922  138.3616  166.4647 C.3     1  UNL1        0.2525
     18 O         138.5908  139.7362  166.4166 O.3     1  UNL1       -0.4708
     19 C         139.1812  140.0643  169.3395 C.1     1  UNL1        0.1035
     20 N         138.0658  140.0082  170.3409 N.1     1  UNL1       -0.1907
     21 C         143.5218  141.0025  158.4984 C.3     1  UNL1        0.0769
     22 C         142.1159  141.2820  158.0566 C.3     1  UNL1        0.0433
     23 C         141.1084  141.7968  159.0416 C.ar    1  UNL1       -0.0249
     24 C         141.1132  143.2451  159.4316 C.ar    1  UNL1       -0.0043
     25 C         140.1058  143.7599  160.4166 C.ar    1  UNL1        0.0059
     26 C         139.0936  142.8263  161.0115 C.ar    1  UNL1        0.0748
     27 C         139.0889  141.3779  160.6214 C.ar    1  UNL1        0.0233
     28 C         140.0962  140.8631  159.6364 C.ar    1  UNL1       -0.0260
     29 C         140.0915  139.4147  159.2463 C.3     1  UNL1        0.0305
     30 C         137.9785  140.7003  161.3683 C.3     1  UNL1        0.2352
     31 O         137.2970  141.7299  162.2200 O.3     1  UNL1       -0.4404
     32 C         137.9862  143.0439  161.9995 C.2     1  UNL1        0.3413
     33 O         137.6304  144.3466  162.6524 O.2     1  UNL1       -0.2449
@<TRIPOS>BOND
     1    17    18    1
     2    18    11    1
     3    11    12   ar
     4    12    13   ar
     5    13     8    1
     6     8     9    1
     7     8    10    1
     8     8     7    1
     9     7     1    1
    10     1     2    1
    11     2     3    1
    12     3     4    1
    13     4    21    1
    14    21    22    1
    15    22    23    1
    16    23    24   ar
    17    24    25   ar
    18    25    26   ar
    19    26    27   ar
    20    27    28   ar
    21    28    29    1
    22    27    30    1
    23    30    31    1
    24    31    32    1
    25    32    33    2
    26     4     5    1
    27     5     6    1
    28    13    14   ar
    29    14    15   ar
    30    15    16   ar
    31    16    19    1
    32    19    20    3
    33    16    11   ar
    34     6     1    1
    35    28    23   ar
    36    32    26    1
@<TRIPOS>MOLECULE
*****
 33 36 0 0 0
SMALL
GASTEIGER

@<TRIPOS>ATOM
      1 N         142.0774  138.5128  162.4848 N.3     1  UNL1       -0.2700
      2 C         142.4687  139.4666  161.3952 C.3     1  UNL1        0.0897
      3 C         141.5328  139.7237  160.2517 C.3     1  UNL1        0.0897
      4 N         140.2054  139.0271  160.1976 N.3     1  UNL1       -0.2700
      5 C         139.8140  138.0733  161.2871 C.3     1  UNL1        0.0897
      6 C         140.7501  137.8162  162.4307 C.3     1  UNL1        0.0897
      7 C         143.0133  138.2556  163.6285 C.3     1  UNL1        0.0762
      8 C         142.9903  139.1502  164.8322 C.3     1  UNL1        0.0337
      9 C         144.2431  139.8236  164.3557 C.3     1  UNL1        0.0058
     10 C         141.7374  138.4769  165.3087 C.3     1  UNL1        0.0058
     11 C         142.6053  140.3750  168.5874 C.ar    1  UNL1        0.1479
     12 C         142.6283  139.4803  167.3837 C.ar    1  UNL1        0.0334
     13 C         142.9672  140.0448  166.0359 C.ar    1  UNL1       -0.0184
     14 C         143.2832  141.5041  165.8920 C.ar    1  UNL1       -0.0034
     15 C         143.2602  142.3988  167.0958 C.ar    1  UNL1        0.0130
     16 C         142.9212  141.8342  168.4435 C.ar    1  UNL1        0.1023
     17 C         140.8428  139.8022  170.4084 C.3     1  UNL1        0.2525
     18 O         142.2663  139.8104  169.9352 O.3     1  UNL1       -0.4708
     19 C         142.8982  142.7288  169.6473 C.1     1  UNL1        0.1035
     20 N         142.8752  143.6235  170.8511 N.1     1  UNL1       -0.1907
     21 C         139.2695  139.2843  159.0540 C.3     1  UNL1        0.0769
     22 C         138.2633  140.3932  159.1431 C.3     1  UNL1        0.0433
     23 C         138.6001  141.6539  159.8830 C.ar    1  UNL1       -0.0249
     24 C         139.3455  142.7548  159.1886 C.ar    1  UNL1       -0.0043
     25 C         139.6823  144.0154  159.9284 C.ar    1  UNL1        0.0059
     26 C         139.2736  144.1751  161.3628 C.ar    1  UNL1        0.0748
     27 C         138.5281  143.0742  162.0573 C.ar    1  UNL1        0.0233
     28 C         138.1914  141.8136  161.3174 C.ar    1  UNL1       -0.0260
     29 C         137.4459  140.7126  162.0119 C.3     1  UNL1        0.0305
     30 C         138.2583  143.5139  163.4658 C.3     1  UNL1        0.2352
     31 O         138.8369  144.8865  163.6418 O.3     1  UNL1       -0.4404
     32 C         139.4645  145.2952  162.3421 C.2     1  UNL1        0.3413
     33 O         140.1606  146.5956  162.0696 O.2     1  UNL1       -0.2449
@<TRIPOS>BOND
     1    17    18    1
     2    18    11    1
     3    11    12   ar
     4    12    13   ar
     5    13     8    1
     6     8     9    1
     7     8    10    1
     8     8     7    1
     9     7     1    1
    10     1     2    1
    11     2     3    1
    12     3     4    1
    13     4    21    1
    14    21    22    1
    15    22    23    1
    16    23    24   ar
    17    24    25   ar
    18    25    26   ar
    19    26    27   ar
    20    27    28   ar
    21    28    29    1
    22    27    30    1
    23    30    31    1
    24    31    32    1
    25    32    33    2
    26     4     5    1
    27     5     6    1
    28    13    14   ar
    29    14    15   ar
    30    15    16   ar
    31    16    19    1
    32    19    20    3
    33    16    11   ar
    34     6     1    1
    35    28    23   ar
    36    32    26    1
@<TRIPOS>MOLECULE
*****
 33 36 0 0 0
SMALL
GASTEIGER

@<TRIPOS>ATOM
      1 N         140.7503  138.3586  161.3494 N.3     1  UNL1       -0.2700
      2 C         140.0508  139.0701  160.2292 C.3     1  UNL1        0.0897
      3 C         140.8497  139.7850  159.1801 C.3     1  UNL1        0.0897
      4 N         142.3480  139.7886  159.2511 N.3     1  UNL1       -0.2700
      5 C         143.0475  139.0772  160.3712 C.3     1  UNL1        0.0897
      6 C         142.2486  138.3622  161.4203 C.3     1  UNL1        0.0897
      7 C         139.9515  137.6437  162.3985 C.3     1  UNL1        0.0762
      8 C         139.8547  138.2109  163.7837 C.3     1  UNL1        0.0337
      9 C         140.8905  137.2341  164.2560 C.3     1  UNL1        0.0058
     10 C         138.8189  139.1877  163.3113 C.3     1  UNL1        0.0058
     11 C         140.8543  140.0052  167.1794 C.ar    1  UNL1        0.1479
     12 C         140.9511  139.4380  165.7942 C.ar    1  UNL1        0.0334
     13 C         139.7579  138.7782  165.1689 C.ar    1  UNL1       -0.0184
     14 C         138.4680  138.6857  165.9288 C.ar    1  UNL1       -0.0034
     15 C         138.3712  139.2529  167.3141 C.ar    1  UNL1        0.0130
     16 C         139.5644  139.9127  167.9393 C.ar    1  UNL1        0.1023
     17 C         142.4845  142.0220  167.3381 C.3     1  UNL1        0.2525
     18 O         142.0475  140.6650  167.8048 O.3     1  UNL1       -0.4708
     19 C         139.4677  140.4800  169.3246 C.1     1  UNL1        0.1035
     20 N         139.3709  141.0473  170.7098 N.1     1  UNL1       -0.1907
     21 C         143.1468  140.5035  158.2019 C.3     1  UNL1        0.0769
     22 C         143.3617  141.9847  158.3026 C.3     1  UNL1        0.0433
     23 C         143.3857  142.6494  159.6472 C.ar    1  UNL1       -0.0249
     24 C         144.5932  142.5183  160.5272 C.ar    1  UNL1       -0.0043
     25 C         144.6171  143.1830  161.8717 C.ar    1  UNL1        0.0059
     26 C         143.4335  143.9788  162.3361 C.ar    1  UNL1        0.0748
     27 C         142.2259  144.1099  161.4560 C.ar    1  UNL1        0.0233
     28 C         142.2019  143.4452  160.1115 C.ar    1  UNL1       -0.0260
     29 C         140.9944  143.5763  159.2314 C.3     1  UNL1        0.0305
     30 C         141.2159  144.9524  162.1772 C.3     1  UNL1        0.2352
     31 O         141.7993  145.3419  163.5031 O.3     1  UNL1       -0.4404
     32 C         143.1699  144.7402  163.6012 C.2     1  UNL1        0.3413
     33 O         144.1114  144.8761  164.7610 O.2     1  UNL1       -0.2449
@<TRIPOS>BOND
     1    17    18    1
     2    18    11    1
     3    11    12   ar
     4    12    13   ar
     5    13     8    1
     6     8     9    1
     7     8    10    1
     8     8     7    1
     9     7     1    1
    10     1     2    1
    11     2     3    1
    12     3     4    1
    13     4    21    1
    14    21    22    1
    15    22    23    1
    16    23    24   ar
    17    24    25   ar
    18    25    26   ar
    19    26    27   ar
    20    27    28   ar
    21    28    29    1
    22    27    30    1
    23    30    31    1
    24    31    32    1
    25    32    33    2
    26     4     5    1
    27     5     6    1
    28    13    14   ar
    29    14    15   ar
    30    15    16   ar
    31    16    19    1
    32    19    20    3
    33    16    11   ar
    34     6     1    1
    35    28    23   ar
    36    32    26    1
@<TRIPOS>MOLECULE
*****
 33 36 0 0 0
SMALL
GASTEIGER

@<TRIPOS>ATOM
      1 N         144.4543  140.7889  162.9757 N.3     1  UNL1       -0.2700
      2 C         143.7585  140.0084  161.9001 C.3     1  UNL1        0.0897
      3 C         143.5341  140.6256  160.5515 C.3     1  UNL1        0.0897
      4 N         144.0055  142.0231  160.2784 N.3     1  UNL1       -0.2700
      5 C         144.7013  142.8036  161.3539 C.3     1  UNL1        0.0897
      6 C         144.9256  142.1864  162.7026 C.3     1  UNL1        0.0897
      7 C         144.6786  140.1718  164.3244 C.3     1  UNL1        0.0762
      8 C         143.5666  140.1435  165.3306 C.3     1  UNL1        0.0337
      9 C         143.4771  138.6528  165.1897 C.3     1  UNL1        0.0058
     10 C         143.6561  141.6342  165.4715 C.3     1  UNL1        0.0058
     11 C         141.6518  140.2032  168.8061 C.ar    1  UNL1        0.1479
     12 C         142.7639  140.2316  167.8000 C.ar    1  UNL1        0.0334
     13 C         142.4546  140.1152  166.3368 C.ar    1  UNL1       -0.0184
     14 C         141.0332  139.9704  165.8799 C.ar    1  UNL1       -0.0034
     15 C         139.9211  139.9421  166.8861 C.ar    1  UNL1        0.0130
     16 C         140.2304  140.0585  168.3493 C.ar    1  UNL1        0.1023
     17 C         142.0427  141.6719  170.9134 C.3     1  UNL1        0.2525
     18 O         141.9611  140.3196  170.2693 O.3     1  UNL1       -0.4708
     19 C         139.1184  140.0301  169.3555 C.1     1  UNL1        0.1035
     20 N         138.0063  140.0018  170.3618 N.1     1  UNL1       -0.1907
     21 C         143.7811  142.6402  158.9298 C.3     1  UNL1        0.0769
     22 C         142.5890  143.5202  158.6966 C.3     1  UNL1        0.0433
     23 C         141.4850  143.5719  159.7109 C.ar    1  UNL1       -0.0249
     24 C         141.4578  144.6678  160.7346 C.ar    1  UNL1       -0.0043
     25 C         140.3540  144.7195  161.7489 C.ar    1  UNL1        0.0059
     26 C         139.2773  143.6752  161.7394 C.ar    1  UNL1        0.0748
     27 C         139.3044  142.5792  160.7157 C.ar    1  UNL1        0.0233
     28 C         140.4083  142.5275  159.7014 C.ar    1  UNL1       -0.0260
     29 C         140.4355  141.4315  158.6776 C.3     1  UNL1        0.0305
     30 C         138.1155  141.6955  160.9510 C.3     1  UNL1        0.2352
     31 O         137.3535  142.2453  162.1202 O.3     1  UNL1       -0.4404
     32 C         138.0715  143.4689  162.6075 C.2     1  UNL1        0.3413
     33 O         137.6566  144.3341  163.7604 O.2     1  UNL1       -0.2449
@<TRIPOS>BOND
     1    17    18    1
     2    18    11    1
     3    11    12   ar
     4    12    13   ar
     5    13     8    1
     6     8     9    1
     7     8    10    1
     8     8     7    1
     9     7     1    1
    10     1     2    1
    11     2     3    1
    12     3     4    1
    13     4    21    1
    14    21    22    1
    15    22    23    1
    16    23    24   ar
    17    24    25   ar
    18    25    26   ar
    19    26    27   ar
    20    27    28   ar
    21    28    29    1
    22    27    30    1
    23    30    31    1
    24    31    32    1
    25    32    33    2
    26     4     5    1
    27     5     6    1
    28    13    14   ar
    29    14    15   ar
    30    15    16   ar
    31    16    19    1
    32    19    20    3
    33    16    11   ar
    34     6     1    1
    35    28    23   ar
    36    32    26    1
