@<TRIPOS>MOLECULE
*****
 27 30 0 0 0
SMALL
GASTEIGER

@<TRIPOS>ATOM
      1 C         140.9180  138.5101  162.2669 C.ar    1  UNL1        0.1917
      2 N         139.7436  137.6029  162.0484 N.ar    1  UNL1       -0.1268
      3 N         138.9378  137.5751  163.3133 N.ar    1  UNL1       -0.1316
      4 C         139.6141  138.4652  164.3135 C.ar    1  UNL1        0.1615
      5 N         140.8379  139.0431  163.6668 N.ar    1  UNL1       -0.2940
      6 C         141.7213  139.9799  164.4361 C.3     1  UNL1        0.1302
      7 C         141.3809  140.3389  165.8522 C.3     1  UNL1        0.1186
      8 N         140.1570  139.7610  166.4989 N.am    1  UNL1       -0.2688
      9 C         139.8166  140.1199  167.9150 C.2     1  UNL1        0.2516
     10 O         138.5927  139.5420  168.5617 O.2     1  UNL1       -0.2698
     11 C         139.2736  138.8241  165.7295 C.3     1  UNL1        0.1343
     12 C         138.0498  138.2462  166.3762 C.3     1  UNL1        0.0298
     13 C         140.7000  141.0567  168.6843 C.ar    1  UNL1        0.0834
     14 C         140.2602  142.4694  168.9313 C.ar    1  UNL1        0.0092
     15 C         141.1437  143.4062  169.7007 C.ar    1  UNL1        0.0323
     16 C         142.4668  142.9304  170.2230 C.ar    1  UNL1        0.1696
     17 F         143.3503  143.8672  170.9924 F       1  UNL1       -0.2017
     18 C         142.9066  141.5177  169.9760 C.ar    1  UNL1        0.1947
     19 F         144.2298  141.0419  170.4983 F       1  UNL1       -0.1994
     20 C         142.0232  140.5809  169.2066 C.ar    1  UNL1        0.1739
     21 F         142.4629  139.1683  168.9596 F       1  UNL1       -0.2016
     22 C         143.4438  140.5319  158.0940 C.3     1  UNL1        0.0744
     23 C         143.1460  139.7579  159.3439 C.ar    1  UNL1        0.1481
     24 N         144.1082  138.8794  160.0871 N.ar    1  UNL1       -0.1929
     25 S         143.3907  138.3050  161.2726 S.2     1  UNL1        0.0369
     26 C         141.9851  138.8286  161.2620 C.ar    1  UNL1        0.1652
     27 N         141.8338  139.7265  160.0700 N.ar    1  UNL1       -0.2190
@<TRIPOS>BOND
     1    22    23    1
     2    23    24   ar
     3    24    25   ar
     4    25    26   ar
     5    26     1    1
     6     1     2   ar
     7     2     3   ar
     8     3     4   ar
     9     4     5   ar
    10     5     6    1
    11     6     7    1
    12     7     8    1
    13     8     9   am
    14     9    10    2
    15     9    13    1
    16    13    14   ar
    17    14    15   ar
    18    15    16   ar
    19    16    17    1
    20    16    18   ar
    21    18    19    1
    22    18    20   ar
    23    20    21    1
    24     8    11    1
    25    11    12    1
    26    26    27   ar
    27    27    23   ar
    28     5     1   ar
    29    20    13   ar
    30    11     4    1
@<TRIPOS>MOLECULE
*****
 27 30 0 0 0
SMALL
GASTEIGER

@<TRIPOS>ATOM
      1 C         140.4393  138.7657  162.2153 C.ar    1  UNL1        0.1917
      2 N         141.5537  137.8274  161.8577 N.ar    1  UNL1       -0.1268
      3 N         142.4304  137.6679  163.0643 N.ar    1  UNL1       -0.1316
      4 C         141.8579  138.5075  164.1676 C.ar    1  UNL1        0.1615
      5 N         140.6273  139.1860  163.6428 N.ar    1  UNL1       -0.2940
      6 C         139.8370  140.0989  164.5327 C.3     1  UNL1        0.1302
      7 C         140.2773  140.3334  165.9474 C.3     1  UNL1        0.1186
      8 N         141.5078  139.6549  166.4722 N.am    1  UNL1       -0.2688
      9 C         141.9481  139.8893  167.8868 C.2     1  UNL1        0.2516
     10 O         143.1787  139.2108  168.4115 O.2     1  UNL1       -0.2698
     11 C         142.2982  138.7419  165.5822 C.3     1  UNL1        0.1343
     12 C         143.5288  138.0634  166.1069 C.3     1  UNL1        0.0298
     13 C         141.1578  140.8022  168.7767 C.ar    1  UNL1        0.0834
     14 C         139.8850  140.3189  169.4063 C.ar    1  UNL1        0.0092
     15 C         139.0947  141.2319  170.2962 C.ar    1  UNL1        0.0323
     16 C         139.5772  142.6281  170.5565 C.ar    1  UNL1        0.1696
     17 F         138.7868  143.5411  171.4464 F       1  UNL1       -0.2017
     18 C         140.8499  143.1114  169.9269 C.ar    1  UNL1        0.1947
     19 F         141.3324  144.5077  170.1872 F       1  UNL1       -0.1994
     20 C         141.6403  142.1985  169.0370 C.ar    1  UNL1        0.1739
     21 F         142.9130  142.6818  168.4073 F       1  UNL1       -0.2016
     22 C         137.8198  140.9631  158.1916 C.3     1  UNL1        0.0744
     23 C         138.1274  140.2163  159.4556 C.ar    1  UNL1        0.1481
     24 N         137.1257  139.5523  160.3533 N.ar    1  UNL1       -0.1929
     25 S         137.8699  138.9281  161.4964 S.2     1  UNL1        0.0369
     26 C         139.3314  139.2063  161.3051 C.ar    1  UNL1        0.1652
     27 N         139.4906  140.0025  160.0438 N.ar    1  UNL1       -0.2190
@<TRIPOS>BOND
     1    22    23    1
     2    23    24   ar
     3    24    25   ar
     4    25    26   ar
     5    26     1    1
     6     1     2   ar
     7     2     3   ar
     8     3     4   ar
     9     4     5   ar
    10     5     6    1
    11     6     7    1
    12     7     8    1
    13     8     9   am
    14     9    10    2
    15     9    13    1
    16    13    14   ar
    17    14    15   ar
    18    15    16   ar
    19    16    17    1
    20    16    18   ar
    21    18    19    1
    22    18    20   ar
    23    20    21    1
    24     8    11    1
    25    11    12    1
    26    26    27   ar
    27    27    23   ar
    28     5     1   ar
    29    20    13   ar
    30    11     4    1
@<TRIPOS>MOLECULE
*****
 27 30 0 0 0
SMALL
GASTEIGER

@<TRIPOS>ATOM
      1 C         143.2439  141.3900  161.9260 C.ar    1  UNL1        0.1917
      2 N         144.1270  140.2365  161.5526 N.ar    1  UNL1       -0.1268
      3 N         144.3209  139.3869  162.7735 N.ar    1  UNL1       -0.1316
      4 C         143.5575  140.0153  163.9015 C.ar    1  UNL1        0.1615
      5 N         142.8919  141.2533  163.3777 N.ar    1  UNL1       -0.2940
      6 C         142.0513  142.0962  164.2904 C.3     1  UNL1        0.1302
      7 C         141.8763  141.7010  165.7268 C.3     1  UNL1        0.1186
      8 N         142.5419  140.4630  166.2506 N.am    1  UNL1       -0.2688
      9 C         142.3669  140.0679  167.6869 C.2     1  UNL1        0.2516
     10 O         143.0326  138.8299  168.2107 O.2     1  UNL1       -0.2698
     11 C         143.3826  139.6202  165.3379 C.3     1  UNL1        0.1343
     12 C         144.0482  138.3822  165.8616 C.3     1  UNL1        0.0298
     13 C         141.5263  140.9108  168.5996 C.ar    1  UNL1        0.0834
     14 C         140.1905  140.4106  169.0638 C.ar    1  UNL1        0.0092
     15 C         139.3499  141.2535  169.9765 C.ar    1  UNL1        0.0323
     16 C         139.8451  142.5965  170.4248 C.ar    1  UNL1        0.1696
     17 F         139.0044  143.4395  171.3375 F       1  UNL1       -0.2017
     18 C         141.1809  143.0967  169.9606 C.ar    1  UNL1        0.1947
     19 F         141.6760  144.4398  170.4090 F       1  UNL1       -0.1994
     20 C         142.0215  142.2539  169.0480 C.ar    1  UNL1        0.1739
     21 F         143.3573  142.7540  168.5837 F       1  UNL1       -0.2016
     22 C         140.4931  145.3981  159.8647 C.3     1  UNL1        0.0744
     23 C         141.5276  144.3298  160.0614 C.ar    1  UNL1        0.1481
     24 N         142.6656  144.0231  159.1335 N.ar    1  UNL1       -0.1929
     25 S         143.4471  142.8844  159.7191 S.2     1  UNL1        0.0369
     26 C         142.7920  142.4875  161.0088 C.ar    1  UNL1        0.1652
     27 N         141.6057  143.3808  161.2204 N.ar    1  UNL1       -0.2190
@<TRIPOS>BOND
     1    22    23    1
     2    23    24   ar
     3    24    25   ar
     4    25    26   ar
     5    26     1    1
     6     1     2   ar
     7     2     3   ar
     8     3     4   ar
     9     4     5   ar
    10     5     6    1
    11     6     7    1
    12     7     8    1
    13     8     9   am
    14     9    10    2
    15     9    13    1
    16    13    14   ar
    17    14    15   ar
    18    15    16   ar
    19    16    17    1
    20    16    18   ar
    21    18    19    1
    22    18    20   ar
    23    20    21    1
    24     8    11    1
    25    11    12    1
    26    26    27   ar
    27    27    23   ar
    28     5     1   ar
    29    20    13   ar
    30    11     4    1
@<TRIPOS>MOLECULE
*****
 27 30 0 0 0
SMALL
GASTEIGER

@<TRIPOS>ATOM
      1 C         138.8126  142.0483  162.0149 C.ar    1  UNL1        0.1917
      2 N         137.8729  140.9261  161.6868 N.ar    1  UNL1       -0.1268
      3 N         137.6885  140.0991  162.9245 N.ar    1  UNL1       -0.1316
      4 C         138.5142  140.7101  164.0176 C.ar    1  UNL1        0.1615
      5 N         139.2090  141.9148  163.4555 N.ar    1  UNL1       -0.2940
      6 C         140.1127  142.7345  164.3279 C.3     1  UNL1        0.1302
      7 C         140.3217  142.3496  165.7626 C.3     1  UNL1        0.1186
      8 N         139.6270  141.1449  166.3247 N.am    1  UNL1       -0.2688
      9 C         139.8360  140.7600  167.7593 C.2     1  UNL1        0.2516
     10 O         139.1412  139.5553  168.3215 O.2     1  UNL1       -0.2698
     11 C         138.7232  140.3252  165.4522 C.3     1  UNL1        0.1343
     12 C         138.0284  139.1205  166.0144 C.3     1  UNL1        0.0298
     13 C         140.7397  141.5798  168.6318 C.ar    1  UNL1        0.0834
     14 C         140.2643  142.8924  169.1804 C.ar    1  UNL1        0.0092
     15 C         141.1681  143.7122  170.0529 C.ar    1  UNL1        0.0323
     16 C         142.5473  143.2193  170.3767 C.ar    1  UNL1        0.1696
     17 F         143.4511  144.0391  171.2492 F       1  UNL1       -0.2017
     18 C         143.0227  141.9067  169.8281 C.ar    1  UNL1        0.1947
     19 F         144.4020  141.4138  170.1519 F       1  UNL1       -0.1994
     20 C         142.1190  141.0869  168.9556 C.ar    1  UNL1        0.1739
     21 F         142.5944  139.7743  168.4070 F       1  UNL1       -0.2016
     22 C         140.2971  144.5585  157.6132 C.3     1  UNL1        0.0744
     23 C         139.9572  144.2702  159.0454 C.ar    1  UNL1        0.1481
     24 N         140.0152  145.2501  160.1797 N.ar    1  UNL1       -0.1929
     25 S         139.5935  144.5369  161.4302 S.2     1  UNL1        0.0369
     26 C         139.2749  143.1164  161.0687 C.ar    1  UNL1        0.1652
     27 N         139.4997  142.9516  159.5948 N.ar    1  UNL1       -0.2190
@<TRIPOS>BOND
     1    22    23    1
     2    23    24   ar
     3    24    25   ar
     4    25    26   ar
     5    26     1    1
     6     1     2   ar
     7     2     3   ar
     8     3     4   ar
     9     4     5   ar
    10     5     6    1
    11     6     7    1
    12     7     8    1
    13     8     9   am
    14     9    10    2
    15     9    13    1
    16    13    14   ar
    17    14    15   ar
    18    15    16   ar
    19    16    17    1
    20    16    18   ar
    21    18    19    1
    22    18    20   ar
    23    20    21    1
    24     8    11    1
    25    11    12    1
    26    26    27   ar
    27    27    23   ar
    28     5     1   ar
    29    20    13   ar
    30    11     4    1
@<TRIPOS>MOLECULE
*****
 27 30 0 0 0
SMALL
GASTEIGER

@<TRIPOS>ATOM
      1 C         142.8113  142.3740  161.4915 C.ar    1  UNL1        0.1917
      2 N         143.7318  141.3164  160.9585 N.ar    1  UNL1       -0.1268
      3 N         144.0694  140.3853  162.0850 N.ar    1  UNL1       -0.1316
      4 C         143.3576  140.8674  163.3142 C.ar    1  UNL1        0.1615
      5 N         142.5800  142.0966  162.9474 N.ar    1  UNL1       -0.2940
      6 C         141.7619  142.8043  163.9865 C.3     1  UNL1        0.1302
      7 C         141.7213  142.2829  165.3924 C.3     1  UNL1        0.1186
      8 N         142.4989  141.0538  165.7592 N.am    1  UNL1       -0.2688
      9 C         142.4584  140.5324  167.1651 C.2     1  UNL1        0.2516
     10 O         143.2360  139.3033  167.5319 O.2     1  UNL1       -0.2698
     11 C         143.3171  140.3460  164.7201 C.3     1  UNL1        0.1343
     12 C         144.0947  139.1169  165.0869 C.3     1  UNL1        0.0298
     13 C         141.6403  141.2402  168.2041 C.ar    1  UNL1        0.0834
     14 C         142.1270  142.5325  168.7897 C.ar    1  UNL1        0.0092
     15 C         141.3088  143.2403  169.8289 C.ar    1  UNL1        0.0323
     16 C         140.0039  142.6557  170.2823 C.ar    1  UNL1        0.1696
     17 F         139.1857  143.3635  171.3214 F       1  UNL1       -0.2017
     18 C         139.5172  141.3634  169.6966 C.ar    1  UNL1        0.1947
     19 F         138.2123  140.7788  170.1501 F       1  UNL1       -0.1994
     20 C         140.3354  140.6556  168.6576 C.ar    1  UNL1        0.1739
     21 F         139.8487  139.3632  168.0719 F       1  UNL1       -0.2016
     22 C         141.8900  145.8720  157.6449 C.3     1  UNL1        0.0744
     23 C         141.8015  145.1176  158.9384 C.ar    1  UNL1        0.1481
     24 N         140.8437  145.3974  160.0584 N.ar    1  UNL1       -0.1929
     25 S         141.1055  144.4036  161.1512 S.2     1  UNL1        0.0369
     26 C         142.2249  143.5098  160.7065 C.ar    1  UNL1        0.1652
     27 N         142.6551  143.9510  159.3389 N.ar    1  UNL1       -0.2190
@<TRIPOS>BOND
     1    22    23    1
     2    23    24   ar
     3    24    25   ar
     4    25    26   ar
     5    26     1    1
     6     1     2   ar
     7     2     3   ar
     8     3     4   ar
     9     4     5   ar
    10     5     6    1
    11     6     7    1
    12     7     8    1
    13     8     9   am
    14     9    10    2
    15     9    13    1
    16    13    14   ar
    17    14    15   ar
    18    15    16   ar
    19    16    17    1
    20    16    18   ar
    21    18    19    1
    22    18    20   ar
    23    20    21    1
    24     8    11    1
    25    11    12    1
    26    26    27   ar
    27    27    23   ar
    28     5     1   ar
    29    20    13   ar
    30    11     4    1
@<TRIPOS>MOLECULE
*****
 27 30 0 0 0
SMALL
GASTEIGER

@<TRIPOS>ATOM
      1 C         142.8870  143.4301  158.7680 C.ar    1  UNL1        0.1917
      2 N         142.5709  144.7771  158.1887 N.ar    1  UNL1       -0.1268
      3 N         141.6958  145.5072  159.1640 N.ar    1  UNL1       -0.1316
      4 C         141.4711  144.6115  160.3460 C.ar    1  UNL1        0.1615
      5 N         142.2073  143.3277  160.1013 N.ar    1  UNL1       -0.2940
      6 C         142.1637  142.2314  161.1241 C.3     1  UNL1        0.1302
      7 C         141.3838  142.4188  162.3917 C.3     1  UNL1        0.1186
      8 N         140.6476  143.7026  162.6364 N.am    1  UNL1       -0.2688
      9 C         139.8677  143.8901  163.9039 C.2     1  UNL1        0.2516
     10 O         139.1315  145.1739  164.1486 O.2     1  UNL1       -0.2698
     11 C         140.6912  144.7989  161.6135 C.3     1  UNL1        0.1343
     12 C         139.9550  146.0827  161.8582 C.3     1  UNL1        0.0298
     13 C         139.8241  142.7938  164.9267 C.ar    1  UNL1        0.0834
     14 C         140.8037  142.7884  166.0627 C.ar    1  UNL1        0.0092
     15 C         140.7600  141.6920  167.0855 C.ar    1  UNL1        0.0323
     16 C         139.7368  140.6011  166.9723 C.ar    1  UNL1        0.1696
     17 F         139.6931  139.5047  167.9952 F       1  UNL1       -0.2017
     18 C         138.7572  140.6064  165.8364 C.ar    1  UNL1        0.1947
     19 F         137.7339  139.5154  165.7232 F       1  UNL1       -0.1994
     20 C         138.8008  141.7028  164.8136 C.ar    1  UNL1        0.1739
     21 F         137.8213  141.7081  163.6776 F       1  UNL1       -0.2016
     22 C         146.3796  141.0077  155.6352 C.3     1  UNL1        0.0744
     23 C         145.3395  141.2578  156.6867 C.ar    1  UNL1        0.1481
     24 N         144.7359  140.2260  157.5928 N.ar    1  UNL1       -0.1929
     25 S         143.7437  140.9142  158.4828 S.2     1  UNL1        0.0369
     26 C         143.7341  142.3712  158.1267 C.ar    1  UNL1        0.1652
     27 N         144.7203  142.5837  157.0166 N.ar    1  UNL1       -0.2190
@<TRIPOS>BOND
     1    22    23    1
     2    23    24   ar
     3    24    25   ar
     4    25    26   ar
     5    26     1    1
     6     1     2   ar
     7     2     3   ar
     8     3     4   ar
     9     4     5   ar
    10     5     6    1
    11     6     7    1
    12     7     8    1
    13     8     9   am
    14     9    10    2
    15     9    13    1
    16    13    14   ar
    17    14    15   ar
    18    15    16   ar
    19    16    17    1
    20    16    18   ar
    21    18    19    1
    22    18    20   ar
    23    20    21    1
    24     8    11    1
    25    11    12    1
    26    26    27   ar
    27    27    23   ar
    28     5     1   ar
    29    20    13   ar
    30    11     4    1
@<TRIPOS>MOLECULE
*****
 27 30 0 0 0
SMALL
GASTEIGER

@<TRIPOS>ATOM
      1 C         142.2352  143.1274  161.3578 C.ar    1  UNL1        0.1917
      2 N         143.5989  143.7114  161.1363 N.ar    1  UNL1       -0.1268
      3 N         144.2910  143.7898  162.4648 N.ar    1  UNL1       -0.1316
      4 C         143.3549  143.2542  163.5074 C.ar    1  UNL1        0.1615
      5 N         142.0843  142.8449  162.8233 N.ar    1  UNL1       -0.2940
      6 C         140.9542  142.2678  163.6230 C.3     1  UNL1        0.1302
      7 C         141.0947  142.1000  165.1071 C.3     1  UNL1        0.1186
      8 N         142.3652  142.5094  165.7912 N.am    1  UNL1       -0.2688
      9 C         142.5057  142.3416  167.2751 C.2     1  UNL1        0.2516
     10 O         143.7763  142.7509  167.9592 O.2     1  UNL1       -0.2698
     11 C         143.4954  143.0865  164.9913 C.3     1  UNL1        0.1343
     12 C         144.7660  143.4958  165.6754 C.3     1  UNL1        0.0298
     13 C         141.3756  141.7645  168.0749 C.ar    1  UNL1        0.0834
     14 C         140.8919  140.3727  167.7938 C.ar    1  UNL1        0.0092
     15 C         139.7617  139.7956  168.5937 C.ar    1  UNL1        0.0323
     16 C         139.1153  140.6103  169.6746 C.ar    1  UNL1        0.1696
     17 F         137.9851  140.0332  170.4744 F       1  UNL1       -0.2017
     18 C         139.5990  142.0020  169.9557 C.ar    1  UNL1        0.1947
     19 F         138.9525  142.8167  171.0367 F       1  UNL1       -0.1994
     20 C         140.7291  142.5792  169.1559 C.ar    1  UNL1        0.1739
     21 F         141.2128  143.9709  169.4370 F       1  UNL1       -0.2016
     22 C         139.1487  140.6794  157.8419 C.3     1  UNL1        0.0744
     23 C         139.7846  141.7457  158.6837 C.ar    1  UNL1        0.1481
     24 N         139.4463  143.2069  158.6594 N.ar    1  UNL1       -0.1929
     25 S         140.3232  143.9024  159.6582 S.2     1  UNL1        0.0369
     26 C         141.2033  142.8710  160.2998 C.ar    1  UNL1        0.1652
     27 N         140.8705  141.5381  159.6975 N.ar    1  UNL1       -0.2190
@<TRIPOS>BOND
     1    22    23    1
     2    23    24   ar
     3    24    25   ar
     4    25    26   ar
     5    26     1    1
     6     1     2   ar
     7     2     3   ar
     8     3     4   ar
     9     4     5   ar
    10     5     6    1
    11     6     7    1
    12     7     8    1
    13     8     9   am
    14     9    10    2
    15     9    13    1
    16    13    14   ar
    17    14    15   ar
    18    15    16   ar
    19    16    17    1
    20    16    18   ar
    21    18    19    1
    22    18    20   ar
    23    20    21    1
    24     8    11    1
    25    11    12    1
    26    26    27   ar
    27    27    23   ar
    28     5     1   ar
    29    20    13   ar
    30    11     4    1
@<TRIPOS>MOLECULE
*****
 27 30 0 0 0
SMALL
GASTEIGER

@<TRIPOS>ATOM
      1 C         142.8309  143.3931  160.5843 C.ar    1  UNL1        0.1917
      2 N         144.3090  143.2580  160.3676 N.ar    1  UNL1       -0.1268
      3 N         144.8298  142.2447  161.3432 N.ar    1  UNL1       -0.1316
      4 C         143.6736  141.7534  162.1629 C.ar    1  UNL1        0.1615
      5 N         142.4382  142.4632  161.6938 N.ar    1  UNL1       -0.2940
      6 C         141.1153  142.1710  162.3376 C.3     1  UNL1        0.1302
      7 C         141.0277  141.1691  163.4505 C.3     1  UNL1        0.1186
      8 N         142.2631  140.4593  163.9195 N.am    1  UNL1       -0.2688
      9 C         142.1756  139.4574  165.0324 C.2     1  UNL1        0.2516
     10 O         143.4110  138.7476  165.5014 O.2     1  UNL1       -0.2698
     11 C         143.5861  140.7515  163.2757 C.3     1  UNL1        0.1343
     12 C         144.8215  140.0417  163.7448 C.3     1  UNL1        0.0298
     13 C         140.8527  139.1652  165.6762 C.ar    1  UNL1        0.0834
     14 C         140.3661  140.0175  166.8106 C.ar    1  UNL1        0.0092
     15 C         139.0431  139.7253  167.4544 C.ar    1  UNL1        0.0323
     16 C         138.2067  138.5809  166.9637 C.ar    1  UNL1        0.1696
     17 F         136.8837  138.2887  167.6075 F       1  UNL1       -0.2017
     18 C         138.6933  137.7286  165.8293 C.ar    1  UNL1        0.1947
     19 F         137.8568  136.5842  165.3386 F       1  UNL1       -0.1994
     20 C         140.0162  138.0208  165.1855 C.ar    1  UNL1        0.1739
     21 F         140.5028  137.1685  164.0511 F       1  UNL1       -0.2016
     22 C         140.6479  146.2271  156.7005 C.3     1  UNL1        0.0744
     23 C         140.9042  145.6016  158.0396 C.ar    1  UNL1        0.1481
     24 N         140.0694  145.7844  159.2723 N.ar    1  UNL1       -0.1929
     25 S         140.6896  144.9793  160.3757 S.2     1  UNL1        0.0369
     26 C         141.9076  144.2990  159.8248 C.ar    1  UNL1        0.1652
     27 N         142.0403  144.6836  158.3810 N.ar    1  UNL1       -0.2190
@<TRIPOS>BOND
     1    22    23    1
     2    23    24   ar
     3    24    25   ar
     4    25    26   ar
     5    26     1    1
     6     1     2   ar
     7     2     3   ar
     8     3     4   ar
     9     4     5   ar
    10     5     6    1
    11     6     7    1
    12     7     8    1
    13     8     9   am
    14     9    10    2
    15     9    13    1
    16    13    14   ar
    17    14    15   ar
    18    15    16   ar
    19    16    17    1
    20    16    18   ar
    21    18    19    1
    22    18    20   ar
    23    20    21    1
    24     8    11    1
    25    11    12    1
    26    26    27   ar
    27    27    23   ar
    28     5     1   ar
    29    20    13   ar
    30    11     4    1
@<TRIPOS>MOLECULE
*****
 27 30 0 0 0
SMALL
GASTEIGER

@<TRIPOS>ATOM
      1 C         140.8235  138.1511  156.9064 C.ar    1  UNL1        0.1917
      2 N         142.2500  138.0500  156.4537 N.ar    1  UNL1       -0.1268
      3 N         143.1264  138.0924  157.6703 N.ar    1  UNL1       -0.1316
      4 C         142.2416  138.2198  158.8748 C.ar    1  UNL1        0.1615
      5 N         140.8183  138.2560  158.4027 N.ar    1  UNL1       -0.2940
      6 C         139.7014  138.3799  159.3962 C.3     1  UNL1        0.1302
      7 C         140.0078  138.4675  160.8621 C.3     1  UNL1        0.1186
      8 N         141.4311  138.4313  161.3342 N.am    1  UNL1       -0.2688
      9 C         141.7376  138.5189  162.7999 C.2     1  UNL1        0.2516
     10 O         143.1608  138.4827  163.2721 O.2     1  UNL1       -0.2698
     11 C         142.5480  138.3074  160.3405 C.3     1  UNL1        0.1343
     12 C         143.9713  138.2712  160.8127 C.3     1  UNL1        0.0298
     13 C         140.6207  138.6428  163.7935 C.ar    1  UNL1        0.0834
     14 C         140.0237  137.4116  164.4081 C.ar    1  UNL1        0.0092
     15 C         138.9067  137.5356  165.4018 C.ar    1  UNL1        0.0323
     16 C         138.3869  138.8906  165.7807 C.ar    1  UNL1        0.1696
     17 F         137.2700  139.0145  166.7743 F       1  UNL1       -0.2017
     18 C         138.9839  140.1218  165.1660 C.ar    1  UNL1        0.1947
     19 F         138.4640  141.4768  165.5450 F       1  UNL1       -0.1994
     20 C         140.1008  139.9979  164.1724 C.ar    1  UNL1        0.1739
     21 F         140.6978  141.2290  163.5578 F       1  UNL1       -0.2016
     22 C         136.2908  139.5536  154.5895 C.3     1  UNL1        0.0744
     23 C         137.5310  138.7926  154.9537 C.ar    1  UNL1        0.1481
     24 N         137.9768  137.4932  154.3511 N.ar    1  UNL1       -0.1929
     25 S         139.2646  137.0948  155.0093 S.2     1  UNL1        0.0369
     26 C         139.6145  138.1478  156.0186 C.ar    1  UNL1        0.1652
     27 N         138.5431  139.1971  155.9842 N.ar    1  UNL1       -0.2190
@<TRIPOS>BOND
     1    22    23    1
     2    23    24   ar
     3    24    25   ar
     4    25    26   ar
     5    26     1    1
     6     1     2   ar
     7     2     3   ar
     8     3     4   ar
     9     4     5   ar
    10     5     6    1
    11     6     7    1
    12     7     8    1
    13     8     9   am
    14     9    10    2
    15     9    13    1
    16    13    14   ar
    17    14    15   ar
    18    15    16   ar
    19    16    17    1
    20    16    18   ar
    21    18    19    1
    22    18    20   ar
    23    20    21    1
    24     8    11    1
    25    11    12    1
    26    26    27   ar
    27    27    23   ar
    28     5     1   ar
    29    20    13   ar
    30    11     4    1
