@<TRIPOS>MOLECULE
*****
 32 36 0 0 0
SMALL
GASTEIGER

@<TRIPOS>ATOM
      1 C         143.4873  139.8199  161.3019 C.3     1  UNL1        0.0181
      2 C         143.2639  139.6615  159.8270 C.3     1  UNL1        0.0036
      3 C         142.9961  139.2012  158.4247 C.3     1  UNL1        0.0227
      4 C         142.7372  137.7242  158.4631 C.3     1  UNL1        0.0870
      5 C         142.8450  137.2716  159.8892 C.3     1  UNL1        0.0227
      6 C         143.1705  138.4690  160.7322 C.3     1  UNL1        0.0036
      7 N         142.4254  136.8528  157.2827 N.ar    1  UNL1       -0.3109
      8 C         141.5649  137.2279  156.1127 C.ar    1  UNL1        0.1785
      9 N         141.5270  136.0602  155.1720 N.ar    1  UNL1       -0.2239
     10 C         142.3640  134.9634  155.7606 C.ar    1  UNL1        0.1011
     11 C         142.6923  133.5819  155.2772 C.ar    1  UNL1        0.0526
     12 C         143.5759  132.6902  156.0984 C.ar    1  UNL1        0.1690
     13 F         143.9041  131.3087  155.6150 F       1  UNL1       -0.2017
     14 C         144.1311  133.1800  157.4029 C.ar    1  UNL1        0.1689
     15 F         145.0146  132.2884  158.2240 F       1  UNL1       -0.2017
     16 C         143.8028  134.5616  157.8862 C.ar    1  UNL1        0.0507
     17 C         142.9192  135.4532  157.0651 C.ar    1  UNL1        0.0813
     18 C         143.7992  140.6914  162.4822 C.3     1  UNL1        0.0718
     19 N         142.8407  140.7657  163.6337 N.am    1  UNL1       -0.3025
     20 C         142.9334  139.7706  164.7521 C.2     1  UNL1        0.2458
     21 O         143.9845  138.7010  164.7192 O.2     1  UNL1       -0.2701
     22 H         142.1507  141.4677  163.6553 H       1  UNL1        0.1497
     23 C         141.9749  139.8449  165.9036 C.ar    1  UNL1        0.0534
     24 C         142.4947  139.9200  167.3085 C.ar    1  UNL1        0.0052
     25 C         141.5362  139.9943  168.4600 C.ar    1  UNL1        0.0104
     26 C         140.0579  139.9935  168.2064 C.ar    1  UNL1        0.0685
     27 C         139.5380  139.9184  166.8014 C.ar    1  UNL1        0.0104
     28 C         140.4965  139.8441  165.6500 C.ar    1  UNL1        0.0052
     29 C         139.0994  140.0678  169.3578 C.1     1  UNL1        0.1004
     30 N         138.1409  140.1422  170.5092 N.1     1  UNL1       -0.1908
     31 C         145.7173  141.8197  163.8229 C.3     1  UNL1        0.0017
     32 C         145.0694  141.4886  162.5112 C.3     1  UNL1        0.0196
@<TRIPOS>BOND
     1    31    32    1
     2    18    32    1
     3    18    19    1
     4    19    20   am
     5    20    21    2
     6    20    23    1
     7    23    24   ar
     8    24    25   ar
     9    25    26   ar
    10    26    29    1
    11    29    30    3
    12    26    27   ar
    13    27    28   ar
    14     1    18    1
    15     1     2    1
    16     2     3    1
    17     3     4    1
    18     4     7    1
    19     7     8   ar
    20     8     9   ar
    21     9    10   ar
    22    10    11   ar
    23    11    12   ar
    24    12    13    1
    25    12    14   ar
    26    14    15    1
    27    14    16   ar
    28    16    17   ar
    29     4     5    1
    30     6     5    1
    31    28    23   ar
    32     6     1    1
    33     6     2    1
    34    17     7   ar
    35    17    10   ar
    36    19    22    1
@<TRIPOS>MOLECULE
*****
 32 36 0 0 0
SMALL
GASTEIGER

@<TRIPOS>ATOM
      1 C         140.4455  145.2114  158.1107 C.3     1  UNL1        0.0181
      2 C         140.0040  144.1955  159.1223 C.3     1  UNL1        0.0036
      3 C         139.5964  143.4160  160.3372 C.3     1  UNL1        0.0227
      4 C         139.6657  144.3338  161.5216 C.3     1  UNL1        0.0870
      5 C         140.1163  145.6806  161.0387 C.3     1  UNL1        0.0227
      6 C         140.3254  145.5952  159.5558 C.3     1  UNL1        0.0036
      7 N         139.3415  143.9688  162.9400 N.ar    1  UNL1       -0.3109
      8 C         137.9859  144.0330  163.5790 C.ar    1  UNL1        0.1785
      9 N         138.1226  143.5794  165.0023 N.ar    1  UNL1       -0.2239
     10 C         139.5625  143.2351  165.2429 C.ar    1  UNL1        0.1011
     11 C         140.2851  142.7334  166.4578 C.ar    1  UNL1        0.0526
     12 C         141.7611  142.4724  166.3983 C.ar    1  UNL1        0.1690
     13 F         142.4836  141.9708  167.6133 F       1  UNL1       -0.2017
     14 C         142.5144  142.7131  165.1237 C.ar    1  UNL1        0.1689
     15 F         143.9903  142.4521  165.0641 F       1  UNL1       -0.2017
     16 C         141.7918  143.2148  163.9087 C.ar    1  UNL1        0.0507
     17 C         140.3159  143.4757  163.9683 C.ar    1  UNL1        0.0813
     18 C         140.7697  145.5762  156.6924 C.3     1  UNL1        0.0718
     19 N         140.6232  146.9960  156.2309 N.am    1  UNL1       -0.3025
     20 C         139.3941  147.4181  155.4820 C.2     1  UNL1        0.2458
     21 O         138.3114  146.4206  155.1945 O.2     1  UNL1       -0.2701
     22 H         141.3337  147.6508  156.4196 H       1  UNL1        0.1497
     23 C         139.2475  148.8379  155.0205 C.ar    1  UNL1        0.0534
     24 C         138.5640  149.8447  155.8973 C.ar    1  UNL1        0.0052
     25 C         138.4174  151.2645  155.4359 C.ar    1  UNL1        0.0104
     26 C         138.9544  151.6773  154.0975 C.ar    1  UNL1        0.0685
     27 C         139.6380  150.6703  153.2207 C.ar    1  UNL1        0.0104
     28 C         139.7845  149.2506  153.6822 C.ar    1  UNL1        0.0052
     29 C         138.8079  153.0969  153.6360 C.1     1  UNL1        0.1004
     30 N         138.6613  154.5166  153.1745 N.1     1  UNL1       -0.1908
     31 C         142.1587  144.8882  154.6074 C.3     1  UNL1        0.0017
     32 C         141.2405  144.5215  155.7354 C.3     1  UNL1        0.0196
@<TRIPOS>BOND
     1    31    32    1
     2    18    32    1
     3    18    19    1
     4    19    20   am
     5    20    21    2
     6    20    23    1
     7    23    24   ar
     8    24    25   ar
     9    25    26   ar
    10    26    29    1
    11    29    30    3
    12    26    27   ar
    13    27    28   ar
    14     1    18    1
    15     1     2    1
    16     2     3    1
    17     3     4    1
    18     4     7    1
    19     7     8   ar
    20     8     9   ar
    21     9    10   ar
    22    10    11   ar
    23    11    12   ar
    24    12    13    1
    25    12    14   ar
    26    14    15    1
    27    14    16   ar
    28    16    17   ar
    29     4     5    1
    30     6     5    1
    31    28    23   ar
    32     6     1    1
    33     6     2    1
    34    17     7   ar
    35    17    10   ar
    36    19    22    1
@<TRIPOS>MOLECULE
*****
 32 36 0 0 0
SMALL
GASTEIGER

@<TRIPOS>ATOM
      1 C         141.6498  138.0109  157.7083 C.3     1  UNL1        0.0181
      2 C         142.5359  136.8530  157.3556 C.3     1  UNL1        0.0036
      3 C         143.1954  135.6271  156.7970 C.3     1  UNL1        0.0227
      4 C         142.2973  135.0592  155.7382 C.3     1  UNL1        0.0870
      5 C         141.0827  135.9342  155.6424 C.3     1  UNL1        0.0227
      6 C         141.2302  137.0429  156.6421 C.3     1  UNL1        0.0036
      7 N         142.5666  133.8319  154.9190 N.ar    1  UNL1       -0.3109
      8 C         142.1239  133.6013  153.5045 C.ar    1  UNL1        0.1785
      9 N         142.6095  132.2465  153.0818 N.ar    1  UNL1       -0.2239
     10 C         143.3523  131.6397  154.2351 C.ar    1  UNL1        0.1011
     11 C         144.0494  130.3216  154.3980 C.ar    1  UNL1        0.0526
     12 C         144.7199  129.9832  155.6965 C.ar    1  UNL1        0.1690
     13 F         145.4170  128.6651  155.8594 F       1  UNL1       -0.2017
     14 C         144.6934  130.9630  156.8320 C.ar    1  UNL1        0.1689
     15 F         145.3639  130.6247  158.1304 F       1  UNL1       -0.2017
     16 C         143.9963  132.2812  156.6690 C.ar    1  UNL1        0.0507
     17 C         143.3257  132.6195  155.3706 C.ar    1  UNL1        0.0813
     18 C         141.3807  139.2382  158.5275 C.3     1  UNL1        0.0718
     19 N         140.5936  139.1328  159.8001 N.am    1  UNL1       -0.3025
     20 C         141.2276  138.5499  161.0280 C.2     1  UNL1        0.2458
     21 O         142.6489  138.0723  160.9836 O.2     1  UNL1       -0.2701
     22 H         139.6607  139.4462  159.8293 H       1  UNL1        0.1497
     23 C         140.4405  138.4444  162.3006 C.ar    1  UNL1        0.0534
     24 C         139.2659  139.3478  162.5330 C.ar    1  UNL1        0.0052
     25 C         138.4787  139.2424  163.8056 C.ar    1  UNL1        0.0104
     26 C         138.8663  138.2335  164.8457 C.ar    1  UNL1        0.0685
     27 C         140.0410  137.3300  164.6133 C.ar    1  UNL1        0.0104
     28 C         140.8280  137.4355  163.3407 C.ar    1  UNL1        0.0052
     29 C         138.0792  138.1280  166.1182 C.1     1  UNL1        0.1004
     30 N         137.2921  138.0225  167.3908 N.1     1  UNL1       -0.1908
     31 C         142.7201  140.6705  156.8232 C.3     1  UNL1        0.0017
     32 C         141.8987  140.5710  158.0743 C.3     1  UNL1        0.0196
@<TRIPOS>BOND
     1    31    32    1
     2    18    32    1
     3    18    19    1
     4    19    20   am
     5    20    21    2
     6    20    23    1
     7    23    24   ar
     8    24    25   ar
     9    25    26   ar
    10    26    29    1
    11    29    30    3
    12    26    27   ar
    13    27    28   ar
    14     1    18    1
    15     1     2    1
    16     2     3    1
    17     3     4    1
    18     4     7    1
    19     7     8   ar
    20     8     9   ar
    21     9    10   ar
    22    10    11   ar
    23    11    12   ar
    24    12    13    1
    25    12    14   ar
    26    14    15    1
    27    14    16   ar
    28    16    17   ar
    29     4     5    1
    30     6     5    1
    31    28    23   ar
    32     6     1    1
    33     6     2    1
    34    17     7   ar
    35    17    10   ar
    36    19    22    1
@<TRIPOS>MOLECULE
*****
 32 36 0 0 0
SMALL
GASTEIGER

@<TRIPOS>ATOM
      1 C         140.1024  144.1579  157.8373 C.3     1  UNL1        0.0181
      2 C         140.2113  144.1978  159.3329 C.3     1  UNL1        0.0036
      3 C         140.0968  144.0178  160.8177 C.3     1  UNL1        0.0227
      4 C         139.0514  142.9743  161.0788 C.3     1  UNL1        0.0870
      5 C         138.5198  142.5094  159.7555 C.3     1  UNL1        0.0227
      6 C         139.2366  143.2656  158.6764 C.3     1  UNL1        0.0036
      7 N         138.6144  142.4821  162.4267 N.ar    1  UNL1       -0.3109
      8 C         137.9500  143.3028  163.4921 C.ar    1  UNL1        0.1785
      9 N         137.6900  142.4107  164.6697 N.ar    1  UNL1       -0.2239
     10 C         138.1938  141.0387  164.3320 C.ar    1  UNL1        0.1011
     11 C         138.2060  139.7550  165.1077 C.ar    1  UNL1        0.0526
     12 C         138.7896  138.5153  164.4972 C.ar    1  UNL1        0.1690
     13 F         138.8019  137.2315  165.2729 F       1  UNL1       -0.2017
     14 C         139.3609  138.5594  163.1110 C.ar    1  UNL1        0.1689
     15 F         139.9445  137.3198  162.5004 F       1  UNL1       -0.2017
     16 C         139.3486  139.8433  162.3352 C.ar    1  UNL1        0.0507
     17 C         138.7650  141.0829  162.9458 C.ar    1  UNL1        0.0813
     18 C         140.5395  144.6502  156.4896 C.3     1  UNL1        0.0718
     19 N         140.4758  146.1142  156.1689 N.am    1  UNL1       -0.3025
     20 C         139.2274  146.6989  155.5778 C.2     1  UNL1        0.2458
     21 O         138.0425  145.8197  155.3073 O.2     1  UNL1       -0.2701
     22 H         141.2534  146.6913  156.3464 H       1  UNL1        0.1497
     23 C         139.1636  148.1629  155.2572 C.ar    1  UNL1        0.0534
     24 C         139.7497  148.6761  153.9754 C.ar    1  UNL1        0.0052
     25 C         139.6859  150.1401  153.6548 C.ar    1  UNL1        0.0104
     26 C         139.0362  151.0908  154.6160 C.ar    1  UNL1        0.0685
     27 C         138.4501  150.5775  155.8979 C.ar    1  UNL1        0.0104
     28 C         138.5139  149.1135  156.2184 C.ar    1  UNL1        0.0052
     29 C         138.9724  152.5547  154.2954 C.1     1  UNL1        0.1004
     30 N         138.9087  154.0186  153.9749 N.1     1  UNL1       -0.1908
     31 C         140.3886  142.3350  155.3202 C.3     1  UNL1        0.0017
     32 C         141.0403  143.6786  155.4623 C.3     1  UNL1        0.0196
@<TRIPOS>BOND
     1    31    32    1
     2    18    32    1
     3    18    19    1
     4    19    20   am
     5    20    21    2
     6    20    23    1
     7    23    24   ar
     8    24    25   ar
     9    25    26   ar
    10    26    29    1
    11    29    30    3
    12    26    27   ar
    13    27    28   ar
    14     1    18    1
    15     1     2    1
    16     2     3    1
    17     3     4    1
    18     4     7    1
    19     7     8   ar
    20     8     9   ar
    21     9    10   ar
    22    10    11   ar
    23    11    12   ar
    24    12    13    1
    25    12    14   ar
    26    14    15    1
    27    14    16   ar
    28    16    17   ar
    29     4     5    1
    30     6     5    1
    31    28    23   ar
    32     6     1    1
    33     6     2    1
    34    17     7   ar
    35    17    10   ar
    36    19    22    1
@<TRIPOS>MOLECULE
*****
 32 36 0 0 0
SMALL
GASTEIGER

@<TRIPOS>ATOM
      1 C         137.0139  141.0693  156.3287 C.3     1  UNL1        0.0181
      2 C         137.7169  141.0335  157.6534 C.3     1  UNL1        0.0036
      3 C         138.6207  140.8083  158.8292 C.3     1  UNL1        0.0227
      4 C         139.7282  139.8948  158.3943 C.3     1  UNL1        0.0870
      5 C         139.5089  139.5554  156.9497 C.3     1  UNL1        0.0227
      6 C         138.2658  140.2592  156.4918 C.3     1  UNL1        0.0036
      7 N         140.8568  139.4065  159.2532 N.ar    1  UNL1       -0.3109
      8 C         142.3188  139.5237  158.9385 C.ar    1  UNL1        0.1785
      9 N         143.0871  138.9048  160.0684 N.ar    1  UNL1       -0.2239
     10 C         142.1000  138.4051  161.0814 C.ar    1  UNL1        0.1011
     11 C         142.2783  137.7078  162.3974 C.ar    1  UNL1        0.0526
     12 C         141.0781  137.3205  163.2096 C.ar    1  UNL1        0.1690
     13 F         141.2563  136.6233  164.5257 F       1  UNL1       -0.2017
     14 C         139.6997  137.6306  162.7057 C.ar    1  UNL1        0.1689
     15 F         138.4995  137.2433  163.5179 F       1  UNL1       -0.2017
     16 C         139.5215  138.3279  161.3896 C.ar    1  UNL1        0.0507
     17 C         140.7216  138.7151  160.5775 C.ar    1  UNL1        0.0813
     18 C         135.8853  141.5576  155.4700 C.3     1  UNL1        0.0718
     19 N         134.4662  141.3721  155.9195 N.am    1  UNL1       -0.3025
     20 C         133.8976  139.9910  156.0571 C.2     1  UNL1        0.2458
     21 O         134.7478  138.7953  155.7451 O.2     1  UNL1       -0.2701
     22 H         133.9082  142.1569  156.1242 H       1  UNL1        0.1497
     23 C         132.4785  139.8055  156.5066 C.ar    1  UNL1        0.0534
     24 C         132.1439  138.7486  157.5169 C.ar    1  UNL1        0.0052
     25 C         130.7249  138.5631  157.9664 C.ar    1  UNL1        0.0104
     26 C         129.6405  139.4345  157.4055 C.ar    1  UNL1        0.0685
     27 C         129.9752  140.4915  156.3951 C.ar    1  UNL1        0.0104
     28 C         131.3942  140.6770  155.9456 C.ar    1  UNL1        0.0052
     29 C         128.2215  139.2491  157.8549 C.1     1  UNL1        0.1004
     30 N         126.8025  139.0636  158.3044 N.1     1  UNL1       -0.1908
     31 C         136.7254  143.6270  154.1426 C.3     1  UNL1        0.0017
     32 C         136.1755  142.2316  154.1617 C.3     1  UNL1        0.0196
@<TRIPOS>BOND
     1    31    32    1
     2    18    32    1
     3    18    19    1
     4    19    20   am
     5    20    21    2
     6    20    23    1
     7    23    24   ar
     8    24    25   ar
     9    25    26   ar
    10    26    29    1
    11    29    30    3
    12    26    27   ar
    13    27    28   ar
    14     1    18    1
    15     1     2    1
    16     2     3    1
    17     3     4    1
    18     4     7    1
    19     7     8   ar
    20     8     9   ar
    21     9    10   ar
    22    10    11   ar
    23    11    12   ar
    24    12    13    1
    25    12    14   ar
    26    14    15    1
    27    14    16   ar
    28    16    17   ar
    29     4     5    1
    30     6     5    1
    31    28    23   ar
    32     6     1    1
    33     6     2    1
    34    17     7   ar
    35    17    10   ar
    36    19    22    1
@<TRIPOS>MOLECULE
*****
 32 36 0 0 0
SMALL
GASTEIGER

@<TRIPOS>ATOM
      1 C         142.3010  137.5381  157.3208 C.3     1  UNL1        0.0181
      2 C         140.9613  138.0966  157.6995 C.3     1  UNL1        0.0036
      3 C         139.7730  138.7575  158.3329 C.3     1  UNL1        0.0227
      4 C         140.2172  139.3639  159.6310 C.3     1  UNL1        0.0870
      5 C         141.6800  139.0778  159.7998 C.3     1  UNL1        0.0227
      6 C         142.1399  138.2946  158.6060 C.3     1  UNL1        0.0036
      7 N         139.3507  140.1230  160.5917 N.ar    1  UNL1       -0.3109
      8 C         138.6056  141.3905  160.2946 C.ar    1  UNL1        0.1785
      9 N         137.8716  141.7988  161.5374 N.ar    1  UNL1       -0.2239
     10 C         138.1630  140.7836  162.6025 C.ar    1  UNL1        0.1011
     11 C         137.7141  140.6685  164.0291 C.ar    1  UNL1        0.0526
     12 C         138.1794  139.5177  164.8713 C.ar    1  UNL1        0.1690
     13 F         137.7305  139.4026  166.2979 F       1  UNL1       -0.2017
     14 C         139.0935  138.4820  164.2868 C.ar    1  UNL1        0.1689
     15 F         139.5588  137.3312  165.1289 F       1  UNL1       -0.2017
     16 C         139.5424  138.5971  162.8601 C.ar    1  UNL1        0.0507
     17 C         139.0772  139.7479  162.0180 C.ar    1  UNL1        0.0813
     18 C         143.1674  136.7790  156.3601 C.3     1  UNL1        0.0718
     19 N         143.6555  135.4055  156.7146 N.am    1  UNL1       -0.3025
     20 C         142.8198  134.2044  156.3850 C.2     1  UNL1        0.2458
     21 O         141.4960  134.3765  155.7009 O.2     1  UNL1       -0.2701
     22 H         144.5243  135.2925  157.1636 H       1  UNL1        0.1497
     23 C         143.3078  132.8309  156.7395 C.ar    1  UNL1        0.0534
     24 C         142.5848  131.6219  156.2244 C.ar    1  UNL1        0.0052
     25 C         143.0729  130.2485  156.5789 C.ar    1  UNL1        0.0104
     26 C         144.2840  130.0842  157.4485 C.ar    1  UNL1        0.0685
     27 C         145.0070  131.2933  157.9636 C.ar    1  UNL1        0.0104
     28 C         144.5189  132.6667  157.6091 C.ar    1  UNL1        0.0052
     29 C         144.7720  128.7109  157.8030 C.1     1  UNL1        0.1004
     30 N         145.2601  127.3375  158.1575 N.1     1  UNL1       -0.1908
     31 C         142.4788  137.7977  154.0714 C.3     1  UNL1        0.0017
     32 C         143.5459  137.3931  155.0449 C.3     1  UNL1        0.0196
@<TRIPOS>BOND
     1    31    32    1
     2    18    32    1
     3    18    19    1
     4    19    20   am
     5    20    21    2
     6    20    23    1
     7    23    24   ar
     8    24    25   ar
     9    25    26   ar
    10    26    29    1
    11    29    30    3
    12    26    27   ar
    13    27    28   ar
    14     1    18    1
    15     1     2    1
    16     2     3    1
    17     3     4    1
    18     4     7    1
    19     7     8   ar
    20     8     9   ar
    21     9    10   ar
    22    10    11   ar
    23    11    12   ar
    24    12    13    1
    25    12    14   ar
    26    14    15    1
    27    14    16   ar
    28    16    17   ar
    29     4     5    1
    30     6     5    1
    31    28    23   ar
    32     6     1    1
    33     6     2    1
    34    17     7   ar
    35    17    10   ar
    36    19    22    1
@<TRIPOS>MOLECULE
*****
 32 36 0 0 0
SMALL
GASTEIGER

@<TRIPOS>ATOM
      1 C         140.2850  138.4582  158.2243 C.3     1  UNL1        0.0181
      2 C         139.6504  138.7901  159.5424 C.3     1  UNL1        0.0036
      3 C         139.2990  139.2371  160.9305 C.3     1  UNL1        0.0227
      4 C         140.5209  139.8568  161.5411 C.3     1  UNL1        0.0870
      5 C         141.6275  139.7929  160.5305 C.3     1  UNL1        0.0227
      6 C         141.0895  139.1336  159.2951 C.3     1  UNL1        0.0036
      7 N         140.6190  140.4384  162.9203 N.ar    1  UNL1       -0.3109
      8 C         141.4366  139.8903  164.0522 C.ar    1  UNL1        0.1785
      9 N         141.2395  140.7833  165.2412 N.ar    1  UNL1       -0.2239
     10 C         140.3002  141.8833  164.8441 C.ar    1  UNL1        0.1011
     11 C         139.7445  143.0515  165.6034 C.ar    1  UNL1        0.0526
     12 C         138.8053  144.0066  164.9283 C.ar    1  UNL1        0.1690
     13 F         138.2497  145.1748  165.6875 F       1  UNL1       -0.2017
     14 C         138.4218  143.7934  163.4939 C.ar    1  UNL1        0.1689
     15 F         137.4826  144.7484  162.8188 F       1  UNL1       -0.2017
     16 C         138.9775  142.6251  162.7346 C.ar    1  UNL1        0.0507
     17 C         139.9167  141.6701  163.4098 C.ar    1  UNL1        0.0813
     18 C         140.1868  137.8767  156.8452 C.3     1  UNL1        0.0718
     19 N         140.7543  136.5172  156.5623 N.am    1  UNL1       -0.3025
     20 C         142.2343  136.2893  156.6495 C.2     1  UNL1        0.2458
     21 O         143.1469  137.4208  157.0194 O.2     1  UNL1       -0.2701
     22 H         140.1554  135.7746  156.3195 H       1  UNL1        0.1497
     23 C         142.8018  134.9299  156.3666 C.ar    1  UNL1        0.0534
     24 C         142.5375  134.2664  155.0476 C.ar    1  UNL1        0.0052
     25 C         143.1050  132.9070  154.7648 C.ar    1  UNL1        0.0104
     26 C         143.9368  132.2111  155.8011 C.ar    1  UNL1        0.0685
     27 C         144.2011  132.8746  157.1201 C.ar    1  UNL1        0.0104
     28 C         143.6335  134.2340  157.4029 C.ar    1  UNL1        0.0052
     29 C         144.5043  130.8517  155.5183 C.1     1  UNL1        0.1004
     30 N         145.0718  129.4923  155.2355 N.1     1  UNL1       -0.1908
     31 C         138.6306  137.9535  154.7662 C.3     1  UNL1        0.0017
     32 C         139.5212  138.6544  155.7488 C.3     1  UNL1        0.0196
@<TRIPOS>BOND
     1    31    32    1
     2    18    32    1
     3    18    19    1
     4    19    20   am
     5    20    21    2
     6    20    23    1
     7    23    24   ar
     8    24    25   ar
     9    25    26   ar
    10    26    29    1
    11    29    30    3
    12    26    27   ar
    13    27    28   ar
    14     1    18    1
    15     1     2    1
    16     2     3    1
    17     3     4    1
    18     4     7    1
    19     7     8   ar
    20     8     9   ar
    21     9    10   ar
    22    10    11   ar
    23    11    12   ar
    24    12    13    1
    25    12    14   ar
    26    14    15    1
    27    14    16   ar
    28    16    17   ar
    29     4     5    1
    30     6     5    1
    31    28    23   ar
    32     6     1    1
    33     6     2    1
    34    17     7   ar
    35    17    10   ar
    36    19    22    1
@<TRIPOS>MOLECULE
*****
 32 36 0 0 0
SMALL
GASTEIGER

@<TRIPOS>ATOM
      1 C         141.0590  138.5572  157.9357 C.3     1  UNL1        0.0181
      2 C         140.4433  139.6332  158.7804 C.3     1  UNL1        0.0036
      3 C         139.9828  140.5689  159.8586 C.3     1  UNL1        0.0227
      4 C         140.5966  140.1229  161.1525 C.3     1  UNL1        0.0870
      5 C         141.4364  138.9116  160.8741 C.3     1  UNL1        0.0227
      6 C         141.3417  138.6089  159.4079 C.3     1  UNL1        0.0036
      7 N         140.4043  140.7739  162.4901 N.ar    1  UNL1       -0.3109
      8 C         140.7407  142.1943  162.8359 C.ar    1  UNL1        0.1785
      9 N         140.3862  142.4170  164.2763 N.ar    1  UNL1       -0.2239
     10 C         139.8307  141.1344  164.8207 C.ar    1  UNL1        0.1011
     11 C         139.3162  140.7600  166.1790 C.ar    1  UNL1        0.0526
     12 C         138.8129  139.3700  166.4335 C.ar    1  UNL1        0.1690
     13 F         138.2984  138.9956  167.7918 F       1  UNL1       -0.2017
     14 C         138.8242  138.3545  165.3296 C.ar    1  UNL1        0.1689
     15 F         138.3209  136.9646  165.5840 F       1  UNL1       -0.2017
     16 C         139.3387  138.7290  163.9712 C.ar    1  UNL1        0.0507
     17 C         139.8420  140.1189  163.7168 C.ar    1  UNL1        0.0813
     18 C         141.2512  137.9063  156.5981 C.3     1  UNL1        0.0718
     19 N         141.2287  136.4109  156.4816 N.am    1  UNL1       -0.3025
     20 C         142.5157  135.6469  156.3840 C.2     1  UNL1        0.2458
     21 O         143.8253  136.3780  156.4029 O.2     1  UNL1       -0.2701
     22 H         140.3692  135.9310  156.4692 H       1  UNL1        0.1497
     23 C         142.4933  134.1515  156.2674 C.ar    1  UNL1        0.0534
     24 C         143.4254  133.3204  157.0982 C.ar    1  UNL1        0.0052
     25 C         143.4030  131.8251  156.9816 C.ar    1  UNL1        0.0104
     26 C         142.4483  131.1610  156.0343 C.ar    1  UNL1        0.0685
     27 C         141.5161  131.9921  155.2035 C.ar    1  UNL1        0.0104
     28 C         141.5386  133.4874  155.3201 C.ar    1  UNL1        0.0052
     29 C         142.4258  129.6657  155.9177 C.1     1  UNL1        0.1004
     30 N         142.4034  128.1704  155.8011 N.1     1  UNL1       -0.1908
     31 C         142.5073  139.8300  155.3850 C.3     1  UNL1        0.0017
     32 C         141.4658  138.7505  155.3770 C.3     1  UNL1        0.0196
@<TRIPOS>BOND
     1    31    32    1
     2    18    32    1
     3    18    19    1
     4    19    20   am
     5    20    21    2
     6    20    23    1
     7    23    24   ar
     8    24    25   ar
     9    25    26   ar
    10    26    29    1
    11    29    30    3
    12    26    27   ar
    13    27    28   ar
    14     1    18    1
    15     1     2    1
    16     2     3    1
    17     3     4    1
    18     4     7    1
    19     7     8   ar
    20     8     9   ar
    21     9    10   ar
    22    10    11   ar
    23    11    12   ar
    24    12    13    1
    25    12    14   ar
    26    14    15    1
    27    14    16   ar
    28    16    17   ar
    29     4     5    1
    30     6     5    1
    31    28    23   ar
    32     6     1    1
    33     6     2    1
    34    17     7   ar
    35    17    10   ar
    36    19    22    1
@<TRIPOS>MOLECULE
*****
 32 36 0 0 0
SMALL
GASTEIGER

@<TRIPOS>ATOM
      1 C         141.0812  139.7148  159.4445 C.3     1  UNL1        0.0181
      2 C         140.4785  138.7399  158.4768 C.3     1  UNL1        0.0036
      3 C         140.1739  137.6826  157.4572 C.3     1  UNL1        0.0227
      4 C         141.4738  137.0851  157.0066 C.3     1  UNL1        0.0870
      5 C         142.5819  137.7730  157.7476 C.3     1  UNL1        0.0227
      6 C         141.9667  138.7958  158.6563 C.3     1  UNL1        0.0036
      7 N         141.6371  135.9916  155.9929 N.ar    1  UNL1       -0.3109
      8 C         140.9272  135.8981  154.6748 C.ar    1  UNL1        0.1785
      9 N         141.3903  134.6483  153.9866 N.ar    1  UNL1       -0.2239
     10 C         142.3864  133.9694  154.8793 C.ar    1  UNL1        0.1011
     11 C         143.1741  132.7025  154.7234 C.ar    1  UNL1        0.0526
     12 C         144.1145  132.2658  155.8074 C.ar    1  UNL1        0.1690
     13 F         144.9023  130.9989  155.6514 F       1  UNL1       -0.2017
     14 C         144.2670  133.0960  157.0474 C.ar    1  UNL1        0.1689
     15 F         145.2073  132.6593  158.1314 F       1  UNL1       -0.2017
     16 C         143.4792  134.3629  157.2033 C.ar    1  UNL1        0.0507
     17 C         142.5389  134.7996  156.1193 C.ar    1  UNL1        0.0813
     18 C         140.9179  140.8083  160.4581 C.3     1  UNL1        0.0718
     19 N         141.0140  140.4945  161.9219 N.am    1  UNL1       -0.3025
     20 C         142.3462  140.5281  162.6102 C.2     1  UNL1        0.2458
     21 O         143.5825  140.8754  161.8349 O.2     1  UNL1       -0.2701
     22 H         140.2026  140.2666  162.4307 H       1  UNL1        0.1497
     23 C         142.4424  140.2143  164.0739 C.ar    1  UNL1        0.0534
     24 C         142.8302  138.8363  164.5217 C.ar    1  UNL1        0.0052
     25 C         142.9263  138.5226  165.9854 C.ar    1  UNL1        0.0104
     26 C         142.6346  139.5870  167.0012 C.ar    1  UNL1        0.0685
     27 C         142.2468  140.9650  166.5534 C.ar    1  UNL1        0.0104
     28 C         142.1507  141.2787  165.0897 C.ar    1  UNL1        0.0052
     29 C         142.7308  139.2733  168.4649 C.1     1  UNL1        0.1004
     30 N         142.8269  138.9596  169.9286 N.1     1  UNL1       -0.1908
     31 C         141.7967  143.0789  159.5515 C.3     1  UNL1        0.0017
     32 C         140.6583  142.2155  160.0083 C.3     1  UNL1        0.0196
@<TRIPOS>BOND
     1    31    32    1
     2    18    32    1
     3    18    19    1
     4    19    20   am
     5    20    21    2
     6    20    23    1
     7    23    24   ar
     8    24    25   ar
     9    25    26   ar
    10    26    29    1
    11    29    30    3
    12    26    27   ar
    13    27    28   ar
    14     1    18    1
    15     1     2    1
    16     2     3    1
    17     3     4    1
    18     4     7    1
    19     7     8   ar
    20     8     9   ar
    21     9    10   ar
    22    10    11   ar
    23    11    12   ar
    24    12    13    1
    25    12    14   ar
    26    14    15    1
    27    14    16   ar
    28    16    17   ar
    29     4     5    1
    30     6     5    1
    31    28    23   ar
    32     6     1    1
    33     6     2    1
    34    17     7   ar
    35    17    10   ar
    36    19    22    1
