@<TRIPOS>MOLECULE
*****
 43 48 0 0 0
SMALL
GASTEIGER

@<TRIPOS>ATOM
      1 N         138.5679  142.1641  158.0917 N.am    1  UNL1       -0.2223
      2 C         138.4914  141.5154  159.4421 C.2     1  UNL1        0.3219
      3 O         137.8763  140.1815  159.7460 O.2     1  UNL1       -0.2512
      4 N         139.1380  142.4350  160.4353 N.am    1  UNL1       -0.1907
      5 C         139.6141  143.6519  159.6988 C.2     1  UNL1        0.2529
      6 O         140.3188  144.8295  160.3043 O.2     1  UNL1       -0.2724
      7 C         139.2617  143.4845  158.2503 C.3     1  UNL1        0.1391
      8 C         138.8470  143.1785  156.8417 C.3     1  UNL1        0.0449
      9 C         139.1375  144.1593  155.7446 C.3     1  UNL1        0.0746
     10 N         139.8427  145.4460  156.0562 N.3     1  UNL1       -0.2676
     11 C         140.2574  145.7520  157.4648 C.3     1  UNL1        0.0746
     12 C         139.9669  144.7712  158.5619 C.3     1  UNL1        0.0449
     13 C         134.6280  141.3713  154.7980 C.3     1  UNL1        0.0522
     14 C         136.0727  141.1963  155.1613 C.ar    1  UNL1        0.0639
     15 C         136.5979  141.7677  156.4449 C.ar    1  UNL1        0.0495
     16 C         138.0427  141.5927  156.8081 C.ar    1  UNL1        0.1418
     17 N         138.9623  140.8462  155.8878 N.ar    1  UNL1       -0.2086
     18 C         138.4372  140.2747  154.6042 C.ar    1  UNL1        0.1997
     19 N         136.9923  140.4498  154.2409 N.ar    1  UNL1       -0.2283
     20 C         139.2830  142.1820  161.9066 C.ar    1  UNL1        0.0622
     21 C         140.5321  141.5441  162.4384 C.ar    1  UNL1        0.0154
     22 C         140.6771  141.2912  163.9098 C.ar    1  UNL1        0.0013
     23 C         139.5731  141.6761  164.8495 C.ar    1  UNL1       -0.0002
     24 C         138.3239  142.3140  164.3177 C.ar    1  UNL1        0.0013
     25 C         138.1790  142.5670  162.8463 C.ar    1  UNL1        0.0154
     26 C         139.7181  141.4231  166.3209 C.ar    1  UNL1       -0.0040
     27 C         140.3656  142.4528  167.1986 C.ar    1  UNL1       -0.0003
     28 C         140.5106  142.1998  168.6700 C.ar    1  UNL1        0.0011
     29 C         140.0081  140.9171  169.2635 C.ar    1  UNL1        0.0137
     30 C         139.3606  139.8875  168.3858 C.ar    1  UNL1       -0.0031
     31 C         139.2156  140.1404  166.9145 C.ar    1  UNL1       -0.0218
     32 C         138.5681  139.1108  166.0367 C.3     1  UNL1        0.0310
     33 C         140.1532  140.6641  170.7349 C.2     1  UNL1        0.0729
     34 O         139.5987  139.4077  171.3382 O.co2   1  UNL1       -0.5446
     35 O         140.8527  141.6677  171.6031 O.co2   1  UNL1       -0.5446
     36 C         140.1332  146.4268  154.9590 C.3     1  UNL1        0.1183
     37 C         139.6761  147.8499  155.0847 C.ar    1  UNL1        0.0712
     38 N         138.8512  148.2712  156.2645 N.ar    1  UNL1       -0.2471
     39 C         138.3941  149.6944  156.3902 C.ar    1  UNL1        0.0985
     40 C         138.7619  150.6961  155.3361 C.ar    1  UNL1        0.0203
     41 C         139.5869  150.2748  154.1562 C.ar    1  UNL1       -0.0015
     42 C         140.0439  148.8517  154.0305 C.ar    1  UNL1       -0.0069
     43 C         140.8689  148.4303  152.8507 C.3     1  UNL1        0.0323
@<TRIPOS>UNITY_ATOM_ATTR
34 1
charge -1
@<TRIPOS>BOND
     1    13    14    1
     2    14    15   ar
     3    15    16   ar
     4    16     1    1
     5     1     2   am
     6     2     3    2
     7     2     4   am
     8     4    20    1
     9    20    21   ar
    10    21    22   ar
    11    22    23   ar
    12    23    26    1
    13    26    27   ar
    14    27    28   ar
    15    28    29   ar
    16    29    33    1
    17    33    34   ar
    18    33    35   ar
    19    29    30   ar
    20    30    31   ar
    21    31    32    1
    22    23    24   ar
    23    24    25   ar
    24     4     5   am
    25     5     6    2
    26     5     7    1
    27     7     8    1
    28     8     9    1
    29     9    10    1
    30    10    36    1
    31    36    37    1
    32    37    38   ar
    33    38    39   ar
    34    39    40   ar
    35    40    41   ar
    36    41    42   ar
    37    42    43    1
    38    10    11    1
    39    11    12    1
    40    16    17   ar
    41    17    18   ar
    42    18    19   ar
    43    19    14   ar
    44     7     1    1
    45    42    37   ar
    46    25    20   ar
    47    12     7    1
    48    31    26   ar
@<TRIPOS>MOLECULE
*****
 43 48 0 0 0
SMALL
GASTEIGER

@<TRIPOS>ATOM
      1 N         143.6698  140.9627  158.5115 N.am    1  UNL1       -0.2223
      2 C         143.4479  141.5956  159.8533 C.2     1  UNL1        0.3219
      3 O         143.7430  143.0210  160.2155 O.2     1  UNL1       -0.2512
      4 N         142.8790  140.5528  160.7693 N.am    1  UNL1       -0.1907
      5 C         142.7493  139.2755  159.9936 C.2     1  UNL1        0.2529
      6 O         142.2232  137.9734  160.5206 O.2     1  UNL1       -0.2724
      7 C         143.2380  139.5288  158.5982 C.3     1  UNL1        0.1391
      8 C         143.7549  139.9298  157.2484 C.3     1  UNL1        0.0449
      9 C         143.8033  138.9256  156.1352 C.3     1  UNL1        0.0746
     10 N         143.3349  137.5204  156.3719 N.3     1  UNL1       -0.2676
     11 C         142.8180  137.1194  157.7217 C.3     1  UNL1        0.0746
     12 C         142.7696  138.1236  158.8348 C.3     1  UNL1        0.0449
     13 C         147.7425  142.3508  155.5984 C.3     1  UNL1        0.0522
     14 C         146.2622  142.3382  155.8399 C.ar    1  UNL1        0.0639
     15 C         145.7061  141.6567  157.0550 C.ar    1  UNL1        0.0495
     16 C         144.2258  141.6442  157.2964 C.ar    1  UNL1        0.1418
     17 N         143.3014  142.3131  156.3227 N.ar    1  UNL1       -0.2086
     18 C         143.8573  142.9945  155.1076 C.ar    1  UNL1        0.1997
     19 N         145.3378  143.0071  154.8662 N.ar    1  UNL1       -0.2283
     20 C         142.5054  140.7522  162.2081 C.ar    1  UNL1        0.0622
     21 C         143.2134  139.9791  163.2810 C.ar    1  UNL1        0.0154
     22 C         142.8398  140.1786  164.7199 C.ar    1  UNL1        0.0013
     23 C         141.7582  141.1512  165.0861 C.ar    1  UNL1       -0.0002
     24 C         141.0501  141.9244  164.0133 C.ar    1  UNL1        0.0013
     25 C         141.4237  141.7248  162.5743 C.ar    1  UNL1        0.0154
     26 C         141.3846  141.3507  166.5251 C.ar    1  UNL1       -0.0040
     27 C         142.1579  142.3159  167.3739 C.ar    1  UNL1       -0.0003
     28 C         141.7843  142.5154  168.8129 C.ar    1  UNL1        0.0011
     29 C         140.6374  141.7496  169.4030 C.ar    1  UNL1        0.0137
     30 C         139.8641  140.7844  168.5542 C.ar    1  UNL1       -0.0031
     31 C         140.2376  140.5849  167.1153 C.ar    1  UNL1       -0.0218
     32 C         139.4644  139.6198  166.2665 C.3     1  UNL1        0.0310
     33 C         140.2638  141.9491  170.8419 C.2     1  UNL1        0.0729
     34 O         140.7140  140.9618  171.8776 O.co2   1  UNL1       -0.5446
     35 O         139.4398  143.1360  171.2453 O.co2   1  UNL1       -0.5446
     36 C         143.3834  136.5162  155.2586 C.3     1  UNL1        0.1183
     37 C         143.0217  135.0847  155.5235 C.ar    1  UNL1        0.0712
     38 N         143.9833  134.1899  156.2480 N.ar    1  UNL1       -0.2471
     39 C         143.6215  132.7585  156.5129 C.ar    1  UNL1        0.0985
     40 C         142.2984  132.2219  156.0533 C.ar    1  UNL1        0.0203
     41 C         141.3368  133.1167  155.3289 C.ar    1  UNL1       -0.0015
     42 C         141.6985  134.5481  155.0640 C.ar    1  UNL1       -0.0069
     43 C         140.7370  135.4429  154.3396 C.3     1  UNL1        0.0323
@<TRIPOS>UNITY_ATOM_ATTR
34 1
charge -1
@<TRIPOS>BOND
     1    13    14    1
     2    14    15   ar
     3    15    16   ar
     4    16     1    1
     5     1     2   am
     6     2     3    2
     7     2     4   am
     8     4    20    1
     9    20    21   ar
    10    21    22   ar
    11    22    23   ar
    12    23    26    1
    13    26    27   ar
    14    27    28   ar
    15    28    29   ar
    16    29    33    1
    17    33    34   ar
    18    33    35   ar
    19    29    30   ar
    20    30    31   ar
    21    31    32    1
    22    23    24   ar
    23    24    25   ar
    24     4     5   am
    25     5     6    2
    26     5     7    1
    27     7     8    1
    28     8     9    1
    29     9    10    1
    30    10    36    1
    31    36    37    1
    32    37    38   ar
    33    38    39   ar
    34    39    40   ar
    35    40    41   ar
    36    41    42   ar
    37    42    43    1
    38    10    11    1
    39    11    12    1
    40    16    17   ar
    41    17    18   ar
    42    18    19   ar
    43    19    14   ar
    44     7     1    1
    45    42    37   ar
    46    25    20   ar
    47    12     7    1
    48    31    26   ar
@<TRIPOS>MOLECULE
*****
 43 48 0 0 0
SMALL
GASTEIGER

@<TRIPOS>ATOM
      1 N         141.9655  138.5307  158.6630 N.am    1  UNL1       -0.2223
      2 C         141.3633  138.5698  160.0363 C.2     1  UNL1        0.3219
      3 O         140.2364  137.7115  160.5297 O.2     1  UNL1       -0.2512
      4 N         142.0861  139.6179  160.8296 N.am    1  UNL1       -0.1907
      5 C         143.1348  140.2265  159.9466 C.2     1  UNL1        0.2529
      6 O         144.0903  141.3158  160.3345 O.2     1  UNL1       -0.2724
      7 C         143.0603  139.5546  158.6075 C.3     1  UNL1        0.1391
      8 C         142.8683  138.7967  157.3274 C.3     1  UNL1        0.0449
      9 C         143.7362  139.0962  156.1412 C.3     1  UNL1        0.0746
     10 N         144.7960  140.1535  156.2351 N.3     1  UNL1       -0.2676
     11 C         144.9879  140.9114  157.5152 C.3     1  UNL1        0.0746
     12 C         144.1201  140.6120  158.7014 C.3     1  UNL1        0.0449
     13 C         138.6448  137.3315  154.8505 C.3     1  UNL1        0.0522
     14 C         139.8860  137.0270  155.6357 C.ar    1  UNL1        0.0639
     15 C         140.3051  137.9312  156.7567 C.ar    1  UNL1        0.0495
     16 C         141.5463  137.6265  157.5419 C.ar    1  UNL1        0.1418
     17 N         142.3684  136.4176  157.2061 N.ar    1  UNL1       -0.2086
     18 C         141.9494  135.5134  156.0852 C.ar    1  UNL1        0.1997
     19 N         140.7081  135.8181  155.2999 N.ar    1  UNL1       -0.2283
     20 C         141.8087  139.9917  162.2555 C.ar    1  UNL1        0.0622
     21 C         142.4943  139.2584  163.3700 C.ar    1  UNL1        0.0154
     22 C         142.2170  139.6322  164.7960 C.ar    1  UNL1        0.0013
     23 C         141.2541  140.7393  165.1075 C.ar    1  UNL1       -0.0002
     24 C         140.5684  141.4727  163.9929 C.ar    1  UNL1        0.0013
     25 C         140.8458  141.0988  162.5670 C.ar    1  UNL1        0.0154
     26 C         140.9767  141.1131  166.5334 C.ar    1  UNL1       -0.0040
     27 C         141.7824  142.1905  167.1966 C.ar    1  UNL1       -0.0003
     28 C         141.5051  142.5643  168.6226 C.ar    1  UNL1        0.0011
     29 C         140.4220  141.8606  169.3853 C.ar    1  UNL1        0.0137
     30 C         139.6162  140.7832  168.7221 C.ar    1  UNL1       -0.0031
     31 C         139.8936  140.4094  167.2962 C.ar    1  UNL1       -0.0218
     32 C         139.0878  139.3319  166.6330 C.3     1  UNL1        0.0310
     33 C         140.1446  142.2344  170.8113 C.2     1  UNL1        0.0729
     34 O         139.2660  143.4100  171.1212 O.co2   1  UNL1       -0.5446
     35 O         140.7460  141.4326  171.9274 O.co2   1  UNL1       -0.5446
     36 C         145.6639  140.4529  155.0488 C.3     1  UNL1        0.1183
     37 C         145.8229  141.8667  154.5737 C.ar    1  UNL1        0.0712
     38 N         144.6721  142.5719  153.9193 N.ar    1  UNL1       -0.2471
     39 C         144.8311  143.9858  153.4441 C.ar    1  UNL1        0.0985
     40 C         146.1410  144.6944  153.6232 C.ar    1  UNL1        0.0203
     41 C         147.2918  143.9892  154.2776 C.ar    1  UNL1       -0.0015
     42 C         147.1328  142.5754  154.7528 C.ar    1  UNL1       -0.0069
     43 C         148.2837  141.8702  155.4072 C.3     1  UNL1        0.0323
@<TRIPOS>UNITY_ATOM_ATTR
34 1
charge -1
@<TRIPOS>BOND
     1    13    14    1
     2    14    15   ar
     3    15    16   ar
     4    16     1    1
     5     1     2   am
     6     2     3    2
     7     2     4   am
     8     4    20    1
     9    20    21   ar
    10    21    22   ar
    11    22    23   ar
    12    23    26    1
    13    26    27   ar
    14    27    28   ar
    15    28    29   ar
    16    29    33    1
    17    33    34   ar
    18    33    35   ar
    19    29    30   ar
    20    30    31   ar
    21    31    32    1
    22    23    24   ar
    23    24    25   ar
    24     4     5   am
    25     5     6    2
    26     5     7    1
    27     7     8    1
    28     8     9    1
    29     9    10    1
    30    10    36    1
    31    36    37    1
    32    37    38   ar
    33    38    39   ar
    34    39    40   ar
    35    40    41   ar
    36    41    42   ar
    37    42    43    1
    38    10    11    1
    39    11    12    1
    40    16    17   ar
    41    17    18   ar
    42    18    19   ar
    43    19    14   ar
    44     7     1    1
    45    42    37   ar
    46    25    20   ar
    47    12     7    1
    48    31    26   ar
@<TRIPOS>MOLECULE
*****
 43 48 0 0 0
SMALL
GASTEIGER

@<TRIPOS>ATOM
      1 N         142.1758  138.5749  158.5456 N.am    1  UNL1       -0.2223
      2 C         142.6929  138.8309  159.9303 C.2     1  UNL1        0.3219
      3 O         144.0332  138.4169  160.4614 O.2     1  UNL1       -0.2512
      4 N         141.6343  139.5737  160.6905 N.am    1  UNL1       -0.1907
      5 C         140.4630  139.7767  159.7757 C.2     1  UNL1        0.2529
      6 O         139.1820  140.4744  160.1250 O.2     1  UNL1       -0.2724
      7 C         140.7976  139.1595  158.4501 C.3     1  UNL1        0.1391
      8 C         141.2705  138.5023  157.1873 C.3     1  UNL1        0.0449
      9 C         140.3829  138.4745  155.9785 C.3     1  UNL1        0.0746
     10 N         139.0224  139.1038  156.0324 N.3     1  UNL1       -0.2676
     11 C         138.5495  139.7609  157.2951 C.3     1  UNL1        0.0746
     12 C         139.4371  139.7888  158.5040 C.3     1  UNL1        0.0449
     13 C         143.4653  134.1584  156.1308 C.3     1  UNL1        0.0522
     14 C         143.5529  135.6517  156.2418 C.ar    1  UNL1        0.0639
     15 C         142.8205  136.3667  157.3383 C.ar    1  UNL1        0.0495
     16 C         142.9082  137.8600  157.4491 C.ar    1  UNL1        0.1418
     17 N         143.7284  138.6383  156.4635 N.ar    1  UNL1       -0.2086
     18 C         144.4608  137.9235  155.3670 C.ar    1  UNL1        0.1997
     19 N         144.3731  136.4301  155.2561 N.ar    1  UNL1       -0.2283
     20 C         141.7302  140.0327  162.1152 C.ar    1  UNL1        0.0622
     21 C         141.5954  141.4899  162.4443 C.ar    1  UNL1        0.0154
     22 C         141.6914  141.9490  163.8691 C.ar    1  UNL1        0.0013
     23 C         141.9220  140.9509  164.9648 C.ar    1  UNL1       -0.0002
     24 C         142.0568  139.4936  164.6357 C.ar    1  UNL1        0.0013
     25 C         141.9609  139.0346  163.2109 C.ar    1  UNL1        0.0154
     26 C         142.0179  141.4099  166.3896 C.ar    1  UNL1       -0.0040
     27 C         143.2979  141.9999  166.9030 C.ar    1  UNL1       -0.0003
     28 C         143.3938  142.4590  168.3278 C.ar    1  UNL1        0.0011
     29 C         142.2096  142.3280  169.2392 C.ar    1  UNL1        0.0137
     30 C         140.9297  141.7380  168.7259 C.ar    1  UNL1       -0.0031
     31 C         140.8338  141.2790  167.3011 C.ar    1  UNL1       -0.0218
     32 C         139.5538  140.6889  166.7878 C.3     1  UNL1        0.0310
     33 C         142.3055  142.7871  170.6640 C.2     1  UNL1        0.0729
     34 O         143.2568  143.8857  171.0356 O.co2   1  UNL1       -0.5446
     35 O         141.4501  142.1475  171.7173 O.co2   1  UNL1       -0.5446
     36 C         138.1347  139.0760  154.8235 C.3     1  UNL1        0.1183
     37 C         136.7997  139.7590  154.8574 C.ar    1  UNL1        0.0712
     38 N         135.5762  138.9944  155.2676 N.ar    1  UNL1       -0.2471
     39 C         134.2412  139.6775  155.3015 C.ar    1  UNL1        0.0985
     40 C         134.1297  141.1252  154.9251 C.ar    1  UNL1        0.0203
     41 C         135.3532  141.8899  154.5149 C.ar    1  UNL1       -0.0015
     42 C         136.6882  141.2068  154.4810 C.ar    1  UNL1       -0.0069
     43 C         137.9118  141.9715  154.0708 C.3     1  UNL1        0.0323
@<TRIPOS>UNITY_ATOM_ATTR
34 1
charge -1
@<TRIPOS>BOND
     1    13    14    1
     2    14    15   ar
     3    15    16   ar
     4    16     1    1
     5     1     2   am
     6     2     3    2
     7     2     4   am
     8     4    20    1
     9    20    21   ar
    10    21    22   ar
    11    22    23   ar
    12    23    26    1
    13    26    27   ar
    14    27    28   ar
    15    28    29   ar
    16    29    33    1
    17    33    34   ar
    18    33    35   ar
    19    29    30   ar
    20    30    31   ar
    21    31    32    1
    22    23    24   ar
    23    24    25   ar
    24     4     5   am
    25     5     6    2
    26     5     7    1
    27     7     8    1
    28     8     9    1
    29     9    10    1
    30    10    36    1
    31    36    37    1
    32    37    38   ar
    33    38    39   ar
    34    39    40   ar
    35    40    41   ar
    36    41    42   ar
    37    42    43    1
    38    10    11    1
    39    11    12    1
    40    16    17   ar
    41    17    18   ar
    42    18    19   ar
    43    19    14   ar
    44     7     1    1
    45    42    37   ar
    46    25    20   ar
    47    12     7    1
    48    31    26   ar
@<TRIPOS>MOLECULE
*****
 43 48 0 0 0
SMALL
GASTEIGER

@<TRIPOS>ATOM
      1 N         138.6368  141.1295  158.6147 N.am    1  UNL1       -0.2223
      2 C         138.6378  141.6988  160.0025 C.2     1  UNL1        0.3219
      3 O         137.6915  142.7358  160.5308 O.2     1  UNL1       -0.2512
      4 N         139.7513  141.0490  160.7693 N.am    1  UNL1       -0.1907
      5 C         140.4385  140.0782  159.8554 C.2     1  UNL1        0.2529
      6 O         141.6090  139.2100  160.2107 O.2     1  UNL1       -0.2724
      7 C         139.7497  140.1279  158.5238 C.3     1  UNL1        0.1391
      8 C         138.9658  140.2857  157.2547 C.3     1  UNL1        0.0449
      9 C         139.3266  139.4760  156.0447 C.3     1  UNL1        0.0746
     10 N         140.4713  138.5084  156.1038 N.3     1  UNL1       -0.2676
     11 C         141.2552  138.3506  157.3728 C.3     1  UNL1        0.0746
     12 C         140.8944  139.1603  158.5828 C.3     1  UNL1        0.0449
     13 C         137.1866  144.3724  154.8226 C.3     1  UNL1        0.0522
     14 C         136.9642  143.1187  155.6155 C.ar    1  UNL1        0.0639
     15 C         137.9118  142.7510  156.7187 C.ar    1  UNL1        0.0495
     16 C         137.6893  141.4972  157.5115 C.ar    1  UNL1        0.1418
     17 N         136.5194  140.6113  157.2013 N.ar    1  UNL1       -0.2086
     18 C         135.5718  140.9789  156.0982 C.ar    1  UNL1        0.1997
     19 N         135.7943  142.2327  155.3052 N.ar    1  UNL1       -0.2283
     20 C         140.1140  141.3222  162.1989 C.ar    1  UNL1        0.0622
     21 C         140.9113  142.5431  162.5503 C.ar    1  UNL1        0.0154
     22 C         141.2740  142.8162  163.9799 C.ar    1  UNL1        0.0013
     23 C         140.8392  141.8684  165.0582 C.ar    1  UNL1       -0.0002
     24 C         140.0418  140.6474  164.7068 C.ar    1  UNL1        0.0013
     25 C         139.6792  140.3744  163.2771 C.ar    1  UNL1        0.0154
     26 C         141.2019  142.1416  166.4879 C.ar    1  UNL1       -0.0040
     27 C         140.2597  142.9092  167.3671 C.ar    1  UNL1       -0.0003
     28 C         140.6224  143.1823  168.7968 C.ar    1  UNL1        0.0011
     29 C         141.9272  142.6878  169.3471 C.ar    1  UNL1        0.0137
     30 C         142.8694  141.9202  168.4678 C.ar    1  UNL1       -0.0031
     31 C         142.5068  141.6471  167.0383 C.ar    1  UNL1       -0.0218
     32 C         143.4490  140.8795  166.1590 C.3     1  UNL1        0.0310
     33 C         142.2899  142.9610  170.7767 C.2     1  UNL1        0.0729
     34 O         141.6031  142.2130  171.8808 O.co2   1  UNL1       -0.5446
     35 O         143.3394  143.9821  171.1023 O.co2   1  UNL1       -0.5446
     36 C         140.8320  137.6987  154.8937 C.3     1  UNL1        0.1183
     37 C         141.6046  136.4223  155.0484 C.ar    1  UNL1        0.0712
     38 N         140.8781  135.1145  155.1577 N.ar    1  UNL1       -0.2471
     39 C         141.6508  133.8381  155.3124 C.ar    1  UNL1        0.0985
     40 C         143.1497  133.8695  155.3578 C.ar    1  UNL1        0.0203
     41 C         143.8761  135.1773  155.2484 C.ar    1  UNL1       -0.0015
     42 C         143.1036  136.4537  155.0937 C.ar    1  UNL1       -0.0069
     43 C         143.8300  137.7615  154.9843 C.3     1  UNL1        0.0323
@<TRIPOS>UNITY_ATOM_ATTR
34 1
charge -1
@<TRIPOS>BOND
     1    13    14    1
     2    14    15   ar
     3    15    16   ar
     4    16     1    1
     5     1     2   am
     6     2     3    2
     7     2     4   am
     8     4    20    1
     9    20    21   ar
    10    21    22   ar
    11    22    23   ar
    12    23    26    1
    13    26    27   ar
    14    27    28   ar
    15    28    29   ar
    16    29    33    1
    17    33    34   ar
    18    33    35   ar
    19    29    30   ar
    20    30    31   ar
    21    31    32    1
    22    23    24   ar
    23    24    25   ar
    24     4     5   am
    25     5     6    2
    26     5     7    1
    27     7     8    1
    28     8     9    1
    29     9    10    1
    30    10    36    1
    31    36    37    1
    32    37    38   ar
    33    38    39   ar
    34    39    40   ar
    35    40    41   ar
    36    41    42   ar
    37    42    43    1
    38    10    11    1
    39    11    12    1
    40    16    17   ar
    41    17    18   ar
    42    18    19   ar
    43    19    14   ar
    44     7     1    1
    45    42    37   ar
    46    25    20   ar
    47    12     7    1
    48    31    26   ar
@<TRIPOS>MOLECULE
*****
 43 48 0 0 0
SMALL
GASTEIGER

@<TRIPOS>ATOM
      1 N         139.6419  140.5226  157.0265 N.am    1  UNL1       -0.2223
      2 C         139.7514  141.7491  156.1699 C.2     1  UNL1        0.3219
      3 O         140.1909  141.7870  154.7363 O.2     1  UNL1       -0.2512
      4 N         139.3443  142.9312  156.9988 N.am    1  UNL1       -0.1907
      5 C         138.9832  142.4352  158.3676 C.2     1  UNL1        0.2529
      6 O         138.5195  143.2795  159.5174 O.2     1  UNL1       -0.2724
      7 C         139.1671  140.9466  158.3848 C.3     1  UNL1        0.1391
      8 C         139.3959  139.4701  158.2519 C.3     1  UNL1        0.0449
      9 C         139.1485  138.5646  159.4218 C.3     1  UNL1        0.0746
     10 N         138.6722  139.1355  160.7246 N.3     1  UNL1       -0.2676
     11 C         138.4433  140.6120  160.8574 C.3     1  UNL1        0.0746
     12 C         138.6908  141.5175  159.6875 C.3     1  UNL1        0.0449
     13 C         143.0164  136.5960  156.5849 C.3     1  UNL1        0.0522
     14 C         141.6399  137.1553  156.3790 C.ar    1  UNL1        0.0639
     15 C         141.3292  138.5593  156.8058 C.ar    1  UNL1        0.0495
     16 C         139.9526  139.1185  156.5998 C.ar    1  UNL1        0.1418
     17 N         138.8868  138.2737  155.9670 N.ar    1  UNL1       -0.2086
     18 C         139.1975  136.8698  155.5402 C.ar    1  UNL1        0.1997
     19 N         140.5741  136.3105  155.7462 N.ar    1  UNL1       -0.2283
     20 C         139.3052  144.3586  156.5396 C.ar    1  UNL1        0.0622
     21 C         140.2985  145.3464  157.0757 C.ar    1  UNL1        0.0154
     22 C         140.2594  146.7739  156.6164 C.ar    1  UNL1        0.0013
     23 C         139.2269  147.2134  155.6210 C.ar    1  UNL1       -0.0002
     24 C         138.2335  146.2256  155.0849 C.ar    1  UNL1        0.0013
     25 C         138.2727  144.7982  155.5442 C.ar    1  UNL1        0.0154
     26 C         139.1878  148.6409  155.1617 C.ar    1  UNL1       -0.0040
     27 C         138.4608  149.6707  155.9747 C.ar    1  UNL1       -0.0003
     28 C         138.4217  151.0981  155.5154 C.ar    1  UNL1        0.0011
     29 C         139.1096  151.4956  154.2431 C.ar    1  UNL1        0.0137
     30 C         139.8366  150.4658  153.4301 C.ar    1  UNL1       -0.0031
     31 C         139.8757  149.0385  153.8894 C.ar    1  UNL1       -0.0218
     32 C         140.6027  148.0087  153.0764 C.3     1  UNL1        0.0310
     33 C         139.0705  152.9231  153.7838 C.2     1  UNL1        0.0729
     34 O         140.1832  153.8597  154.1505 O.co2   1  UNL1       -0.5446
     35 O         137.9185  153.4138  152.9577 O.co2   1  UNL1       -0.5446
     36 C         138.4247  138.2299  161.8945 C.3     1  UNL1        0.1183
     37 C         139.4339  138.1408  163.0006 C.ar    1  UNL1        0.0712
     38 N         140.6152  137.2262  162.8663 N.ar    1  UNL1       -0.2471
     39 C         141.6244  137.1371  163.9725 C.ar    1  UNL1        0.0985
     40 C         141.4523  137.9628  165.2130 C.ar    1  UNL1        0.0203
     41 C         140.2711  138.8774  165.3473 C.ar    1  UNL1       -0.0015
     42 C         139.2619  138.9665  164.2412 C.ar    1  UNL1       -0.0069
     43 C         138.0807  139.8812  164.3755 C.3     1  UNL1        0.0323
@<TRIPOS>UNITY_ATOM_ATTR
34 1
charge -1
@<TRIPOS>BOND
     1    13    14    1
     2    14    15   ar
     3    15    16   ar
     4    16     1    1
     5     1     2   am
     6     2     3    2
     7     2     4   am
     8     4    20    1
     9    20    21   ar
    10    21    22   ar
    11    22    23   ar
    12    23    26    1
    13    26    27   ar
    14    27    28   ar
    15    28    29   ar
    16    29    33    1
    17    33    34   ar
    18    33    35   ar
    19    29    30   ar
    20    30    31   ar
    21    31    32    1
    22    23    24   ar
    23    24    25   ar
    24     4     5   am
    25     5     6    2
    26     5     7    1
    27     7     8    1
    28     8     9    1
    29     9    10    1
    30    10    36    1
    31    36    37    1
    32    37    38   ar
    33    38    39   ar
    34    39    40   ar
    35    40    41   ar
    36    41    42   ar
    37    42    43    1
    38    10    11    1
    39    11    12    1
    40    16    17   ar
    41    17    18   ar
    42    18    19   ar
    43    19    14   ar
    44     7     1    1
    45    42    37   ar
    46    25    20   ar
    47    12     7    1
    48    31    26   ar
@<TRIPOS>MOLECULE
*****
 43 48 0 0 0
SMALL
GASTEIGER

@<TRIPOS>ATOM
      1 N         141.9494  138.0311  158.2573 N.am    1  UNL1       -0.2223
      2 C         142.2383  138.0036  159.7291 C.2     1  UNL1        0.3219
      3 O         143.4278  137.3645  160.3823 O.2     1  UNL1       -0.2512
      4 N         141.1288  138.7274  160.4329 N.am    1  UNL1       -0.1907
      5 C         140.1543  139.2022  159.3962 C.2     1  UNL1        0.2529
      6 O         138.8939  139.9721  159.6580 O.2     1  UNL1       -0.2724
      7 C         140.6614  138.7719  158.0516 C.3     1  UNL1        0.1391
      8 C         141.2900  138.2772  156.7828 C.3     1  UNL1        0.0449
      9 C         140.6258  138.5413  155.4641 C.3     1  UNL1        0.0746
     10 N         139.3329  139.3002  155.4142 N.3     1  UNL1       -0.2676
     11 C         138.7042  139.7949  156.6831 C.3     1  UNL1        0.0746
     12 C         139.3684  139.5308  158.0017 C.3     1  UNL1        0.0449
     13 C         143.3877  133.9013  155.4510 C.3     1  UNL1        0.0522
     14 C         143.5184  135.3595  155.7774 C.ar    1  UNL1        0.0639
     15 C         142.6685  135.9662  156.8542 C.ar    1  UNL1        0.0495
     16 C         142.7993  137.4244  157.1805 C.ar    1  UNL1        0.1418
     17 N         143.7799  138.2759  156.4300 N.ar    1  UNL1       -0.2086
     18 C         144.6298  137.6693  155.3532 C.ar    1  UNL1        0.1997
     19 N         144.4990  136.2110  155.0268 N.ar    1  UNL1       -0.2283
     20 C         141.0141  138.9391  161.9133 C.ar    1  UNL1        0.0622
     21 C         140.9906  137.7599  162.8400 C.ar    1  UNL1        0.0154
     22 C         140.8759  137.9716  164.3206 C.ar    1  UNL1        0.0013
     23 C         140.7846  139.3626  164.8744 C.ar    1  UNL1       -0.0002
     24 C         140.8081  140.5420  163.9477 C.ar    1  UNL1        0.0013
     25 C         140.9229  140.3301  162.4672 C.ar    1  UNL1        0.0154
     26 C         140.6699  139.5744  166.3550 C.ar    1  UNL1       -0.0040
     27 C         141.9075  139.7186  167.1901 C.ar    1  UNL1       -0.0003
     28 C         141.7928  139.9303  168.6707 C.ar    1  UNL1        0.0011
     29 C         140.4404  139.9979  169.3160 C.ar    1  UNL1        0.0137
     30 C         139.2027  139.8537  168.4809 C.ar    1  UNL1       -0.0031
     31 C         139.3175  139.6420  167.0004 C.ar    1  UNL1       -0.0218
     32 C         138.0798  139.4978  166.1653 C.3     1  UNL1        0.0310
     33 C         140.3256  140.2096  170.7966 C.2     1  UNL1        0.0729
     34 O         139.4133  139.3402  171.6101 O.co2   1  UNL1       -0.5446
     35 O         141.1233  141.2909  171.4636 O.co2   1  UNL1       -0.5446
     36 C         138.6686  139.5643  154.0955 C.3     1  UNL1        0.1183
     37 C         137.9593  140.8648  153.8601 C.ar    1  UNL1        0.0712
     38 N         138.7466  142.1022  153.5452 N.ar    1  UNL1       -0.2471
     39 C         138.0373  143.4028  153.3098 C.ar    1  UNL1        0.0985
     40 C         136.5408  143.4660  153.3893 C.ar    1  UNL1        0.0203
     41 C         135.7535  142.2287  153.7042 C.ar    1  UNL1       -0.0015
     42 C         136.4627  140.9281  153.9396 C.ar    1  UNL1       -0.0069
     43 C         135.6755  139.6907  154.2545 C.3     1  UNL1        0.0323
@<TRIPOS>UNITY_ATOM_ATTR
34 1
charge -1
@<TRIPOS>BOND
     1    13    14    1
     2    14    15   ar
     3    15    16   ar
     4    16     1    1
     5     1     2   am
     6     2     3    2
     7     2     4   am
     8     4    20    1
     9    20    21   ar
    10    21    22   ar
    11    22    23   ar
    12    23    26    1
    13    26    27   ar
    14    27    28   ar
    15    28    29   ar
    16    29    33    1
    17    33    34   ar
    18    33    35   ar
    19    29    30   ar
    20    30    31   ar
    21    31    32    1
    22    23    24   ar
    23    24    25   ar
    24     4     5   am
    25     5     6    2
    26     5     7    1
    27     7     8    1
    28     8     9    1
    29     9    10    1
    30    10    36    1
    31    36    37    1
    32    37    38   ar
    33    38    39   ar
    34    39    40   ar
    35    40    41   ar
    36    41    42   ar
    37    42    43    1
    38    10    11    1
    39    11    12    1
    40    16    17   ar
    41    17    18   ar
    42    18    19   ar
    43    19    14   ar
    44     7     1    1
    45    42    37   ar
    46    25    20   ar
    47    12     7    1
    48    31    26   ar
@<TRIPOS>MOLECULE
*****
 43 48 0 0 0
SMALL
GASTEIGER

@<TRIPOS>ATOM
      1 N         142.8615  139.2898  158.2869 N.am    1  UNL1       -0.2223
      2 C         142.2792  138.9240  159.6200 C.2     1  UNL1        0.3219
      3 O         141.4277  137.7238  159.9109 O.2     1  UNL1       -0.2512
      4 N         142.6978  139.9692  160.6112 N.am    1  UNL1       -0.1907
      5 C         143.5389  140.9809  159.8907 C.2     1  UNL1        0.2529
      6 O         144.1683  142.1986  160.4997 O.2     1  UNL1       -0.2724
      7 C         143.6400  140.5610  158.4542 C.3     1  UNL1        0.1391
      8 C         143.6516  140.0180  157.0560 C.3     1  UNL1        0.0449
      9 C         144.3999  140.7422  155.9764 C.3     1  UNL1        0.0746
     10 N         145.1366  142.0094  156.2950 N.3     1  UNL1       -0.2676
     11 C         145.1250  142.5524  157.6932 C.3     1  UNL1        0.0746
     12 C         144.3767  141.8282  158.7728 C.3     1  UNL1        0.0449
     13 C         140.1641  138.2754  153.9631 C.3     1  UNL1        0.0522
     14 C         141.3458  138.0124  154.8487 C.ar    1  UNL1        0.0639
     15 C         141.5128  138.7826  156.1250 C.ar    1  UNL1        0.0495
     16 C         142.6946  138.5196  157.0106 C.ar    1  UNL1        0.1418
     17 N         143.7094  137.4865  156.6198 N.ar    1  UNL1       -0.2086
     18 C         143.5426  136.7163  155.3436 C.ar    1  UNL1        0.1997
     19 N         142.3607  136.9793  154.4580 N.ar    1  UNL1       -0.2283
     20 C         142.3386  139.9976  162.0672 C.ar    1  UNL1        0.0622
     21 C         142.5289  138.7720  162.9108 C.ar    1  UNL1        0.0154
     22 C         142.1696  138.8004  164.3668 C.ar    1  UNL1        0.0013
     23 C         141.6200  140.0545  164.9794 C.ar    1  UNL1       -0.0002
     24 C         141.4296  141.2802  164.1358 C.ar    1  UNL1        0.0013
     25 C         141.7889  141.2517  162.6798 C.ar    1  UNL1        0.0154
     26 C         141.2607  140.0829  166.4354 C.ar    1  UNL1       -0.0040
     27 C         142.3337  140.2538  167.4695 C.ar    1  UNL1       -0.0003
     28 C         141.9744  140.2823  168.9256 C.ar    1  UNL1        0.0011
     29 C         140.5420  140.1398  169.3475 C.ar    1  UNL1        0.0137
     30 C         139.4690  139.9689  168.3134 C.ar    1  UNL1       -0.0031
     31 C         139.8282  139.9404  166.8574 C.ar    1  UNL1       -0.0218
     32 C         138.7552  139.7695  165.8233 C.3     1  UNL1        0.0310
     33 C         140.1827  140.1682  170.8035 C.2     1  UNL1        0.0729
     34 O         140.8103  141.1842  171.7112 O.co2   1  UNL1       -0.5446
     35 O         139.1957  139.1806  171.3519 O.co2   1  UNL1       -0.5446
     36 C         145.8849  142.7336  155.2153 C.3     1  UNL1        0.1183
     37 C         147.2813  142.3159  154.8609 C.ar    1  UNL1        0.0712
     38 N         148.2837  142.0534  155.9455 N.ar    1  UNL1       -0.2471
     39 C         149.6801  141.6357  155.5911 C.ar    1  UNL1        0.0985
     40 C         150.0741  141.4805  154.1521 C.ar    1  UNL1        0.0203
     41 C         149.0717  141.7430  153.0675 C.ar    1  UNL1       -0.0015
     42 C         147.6753  142.1607  153.4219 C.ar    1  UNL1       -0.0069
     43 C         146.6729  142.4231  152.3373 C.3     1  UNL1        0.0323
@<TRIPOS>UNITY_ATOM_ATTR
34 1
charge -1
@<TRIPOS>BOND
     1    13    14    1
     2    14    15   ar
     3    15    16   ar
     4    16     1    1
     5     1     2   am
     6     2     3    2
     7     2     4   am
     8     4    20    1
     9    20    21   ar
    10    21    22   ar
    11    22    23   ar
    12    23    26    1
    13    26    27   ar
    14    27    28   ar
    15    28    29   ar
    16    29    33    1
    17    33    34   ar
    18    33    35   ar
    19    29    30   ar
    20    30    31   ar
    21    31    32    1
    22    23    24   ar
    23    24    25   ar
    24     4     5   am
    25     5     6    2
    26     5     7    1
    27     7     8    1
    28     8     9    1
    29     9    10    1
    30    10    36    1
    31    36    37    1
    32    37    38   ar
    33    38    39   ar
    34    39    40   ar
    35    40    41   ar
    36    41    42   ar
    37    42    43    1
    38    10    11    1
    39    11    12    1
    40    16    17   ar
    41    17    18   ar
    42    18    19   ar
    43    19    14   ar
    44     7     1    1
    45    42    37   ar
    46    25    20   ar
    47    12     7    1
    48    31    26   ar
@<TRIPOS>MOLECULE
*****
 43 48 0 0 0
SMALL
GASTEIGER

@<TRIPOS>ATOM
      1 N         139.8543  143.8977  158.3499 N.am    1  UNL1       -0.2223
      2 C         140.2241  143.9973  159.8002 C.2     1  UNL1        0.3219
      3 O         141.1206  145.0323  160.4125 O.2     1  UNL1       -0.2512
      4 N         139.5400  142.8799  160.5308 N.am    1  UNL1       -0.1907
      5 C         138.7474  142.0899  159.5320 C.2     1  UNL1        0.2529
      6 O         137.9079  140.8828  159.8288 O.2     1  UNL1       -0.2724
      7 C         138.9416  142.7189  158.1841 C.3     1  UNL1        0.1391
      8 C         139.2285  143.4526  156.9077 C.3     1  UNL1        0.0449
      9 C         138.6173  142.9849  155.6202 C.3     1  UNL1        0.0746
     10 N         137.7193  141.7835  155.6091 N.3     1  UNL1       -0.2676
     11 C         137.4324  141.0497  156.8855 C.3     1  UNL1        0.0746
     12 C         138.0436  141.5174  158.1730 C.3     1  UNL1        0.0449
     13 C         139.1095  148.1045  155.3922 C.3     1  UNL1        0.0522
     14 C         139.9436  146.9192  155.7784 C.ar    1  UNL1        0.0639
     15 C         139.4819  146.0011  156.8711 C.ar    1  UNL1        0.0495
     16 C         140.3160  144.8158  157.2572 C.ar    1  UNL1        0.1418
     17 N         141.6119  144.5485  156.5507 N.ar    1  UNL1       -0.2086
     18 C         142.0737  145.4665  155.4581 C.ar    1  UNL1        0.1997
     19 N         141.2395  146.6519  155.0719 N.ar    1  UNL1       -0.2283
     20 C         139.6323  142.6016  162.0017 C.ar    1  UNL1        0.0622
     21 C         138.4197  142.7540  162.8714 C.ar    1  UNL1        0.0154
     22 C         138.5120  142.4756  164.3425 C.ar    1  UNL1        0.0013
     23 C         139.8169  142.0448  164.9439 C.ar    1  UNL1       -0.0002
     24 C         141.0296  141.8924  164.0742 C.ar    1  UNL1        0.0013
     25 C         140.9372  142.1708  162.6031 C.ar    1  UNL1        0.0154
     26 C         139.9093  141.7665  166.4150 C.ar    1  UNL1       -0.0040
     27 C         140.4213  142.8238  167.3476 C.ar    1  UNL1       -0.0003
     28 C         140.5136  142.5454  168.8187 C.ar    1  UNL1        0.0011
     29 C         140.0939  141.2097  169.3570 C.ar    1  UNL1        0.0137
     30 C         139.5819  140.1524  168.4243 C.ar    1  UNL1       -0.0031
     31 C         139.4896  140.4307  166.9533 C.ar    1  UNL1       -0.0218
     32 C         138.9776  139.3734  166.0206 C.3     1  UNL1        0.0310
     33 C         140.1862  140.9313  170.8280 C.2     1  UNL1        0.0729
     34 O         139.7310  139.6093  171.3712 O.co2   1  UNL1       -0.5446
     35 O         140.7337  141.9750  171.7559 O.co2   1  UNL1       -0.5446
     36 C         137.1082  141.3158  154.3215 C.3     1  UNL1        0.1183
     37 C         137.3985  139.9355  153.8113 C.ar    1  UNL1        0.0712
     38 N         138.6771  139.6609  153.0765 N.ar    1  UNL1       -0.2471
     39 C         138.9674  138.2805  152.5664 C.ar    1  UNL1        0.0985
     40 C         137.9791  137.1747  152.7909 C.ar    1  UNL1        0.0203
     41 C         136.7006  137.4492  153.5257 C.ar    1  UNL1       -0.0015
     42 C         136.4102  138.8296  154.0359 C.ar    1  UNL1       -0.0069
     43 C         135.1316  139.1041  154.7706 C.3     1  UNL1        0.0323
@<TRIPOS>UNITY_ATOM_ATTR
34 1
charge -1
@<TRIPOS>BOND
     1    13    14    1
     2    14    15   ar
     3    15    16   ar
     4    16     1    1
     5     1     2   am
     6     2     3    2
     7     2     4   am
     8     4    20    1
     9    20    21   ar
    10    21    22   ar
    11    22    23   ar
    12    23    26    1
    13    26    27   ar
    14    27    28   ar
    15    28    29   ar
    16    29    33    1
    17    33    34   ar
    18    33    35   ar
    19    29    30   ar
    20    30    31   ar
    21    31    32    1
    22    23    24   ar
    23    24    25   ar
    24     4     5   am
    25     5     6    2
    26     5     7    1
    27     7     8    1
    28     8     9    1
    29     9    10    1
    30    10    36    1
    31    36    37    1
    32    37    38   ar
    33    38    39   ar
    34    39    40   ar
    35    40    41   ar
    36    41    42   ar
    37    42    43    1
    38    10    11    1
    39    11    12    1
    40    16    17   ar
    41    17    18   ar
    42    18    19   ar
    43    19    14   ar
    44     7     1    1
    45    42    37   ar
    46    25    20   ar
    47    12     7    1
    48    31    26   ar
