@<TRIPOS>MOLECULE
*****
 24 25 0 0 0
SMALL
GASTEIGER

@<TRIPOS>ATOM
      1 O         138.2249  139.1617  168.5388 O.2     1  UNL1       -0.2747
      2 C         138.9659  139.5988  167.3099 C.2     1  UNL1        0.2272
      3 N         140.3504  140.1633  167.4300 N.am    1  UNL1       -0.2692
      4 H         140.8367  140.4502  166.6235 H       1  UNL1        0.1563
      5 C         140.9940  140.2907  168.7789 C.ar    1  UNL1        0.1404
      6 C         142.2371  139.5125  169.0934 C.ar    1  UNL1        0.0531
      7 C         142.8807  139.6399  170.4423 C.ar    1  UNL1        0.0788
      8 N         142.2812  140.5456  171.4768 N.ar    1  UNL1       -0.3039
      9 C         141.0381  141.3239  171.1623 C.ar    1  UNL1        0.3480
     10 O         140.4385  142.2297  172.1968 O.2     1  UNL1       -0.2446
     11 N         140.3945  141.1965  169.8134 N.ar    1  UNL1       -0.1773
     12 H         142.7036  140.6293  172.3621 H       1  UNL1        0.1705
     13 C         138.3223  139.4714  165.9610 C.3     1  UNL1        0.0872
     14 C         138.3718  140.6180  164.9951 C.3     1  UNL1        0.0353
     15 C         139.4388  140.6659  163.9419 C.3     1  UNL1        0.1564
     16 S         140.4612  141.7633  163.9594 S.O2    1  UNL1        0.0087
     17 O         141.3337  140.9360  164.8563 O.2     1  UNL1       -0.1686
     18 O         139.5887  142.5905  163.0626 O.2     1  UNL1       -0.1686
     19 C         141.4837  142.8607  163.9770 C.ar    1  UNL1        0.1057
     20 C         141.0650  144.2799  163.7310 C.ar    1  UNL1        0.0183
     21 C         142.0875  145.3772  163.7486 C.ar    1  UNL1        0.0013
     22 C         143.5287  145.0553  164.0122 C.ar    1  UNL1        0.0001
     23 C         143.9473  143.6361  164.2582 C.ar    1  UNL1        0.0013
     24 C         142.9249  142.5388  164.2406 C.ar    1  UNL1        0.0183
@<TRIPOS>BOND
     1     1     2    2
     2     2    13    1
     3    13    14    1
     4    14    15    1
     5    15    16    1
     6    16    17    2
     7    16    18    2
     8    16    19    1
     9    19    20   ar
    10    20    21   ar
    11    21    22   ar
    12    22    23   ar
    13    23    24   ar
    14     2     3   am
    15     3     5    1
    16     5     6   ar
    17     6     7   ar
    18     7     8   ar
    19     8     9   ar
    20     9    10    2
    21     9    11   ar
    22    24    19   ar
    23    11     5   ar
    24     3     4    1
    25     8    12    1
@<TRIPOS>MOLECULE
*****
 24 25 0 0 0
SMALL
GASTEIGER

@<TRIPOS>ATOM
      1 O         138.4381  139.1356  168.1968 O.2     1  UNL1       -0.2747
      2 C         139.2182  139.7118  167.0524 C.2     1  UNL1        0.2272
      3 N         140.5542  140.3471  167.2999 N.am    1  UNL1       -0.2692
      4 H         141.0661  140.7253  166.5488 H       1  UNL1        0.1563
      5 C         141.1102  140.4064  168.6918 C.ar    1  UNL1        0.1404
      6 C         142.2911  139.5598  169.0643 C.ar    1  UNL1        0.0531
      7 C         142.8471  139.6190  170.4562 C.ar    1  UNL1        0.0788
      8 N         142.2223  140.5248  171.4755 N.ar    1  UNL1       -0.3039
      9 C         141.0414  141.3714  171.1030 C.ar    1  UNL1        0.3480
     10 O         140.4165  142.2772  172.1223 O.2     1  UNL1       -0.2446
     11 N         140.4854  141.3121  169.7111 N.ar    1  UNL1       -0.1773
     12 H         142.5872  140.5636  172.3891 H       1  UNL1        0.1705
     13 C         138.6621  139.6526  165.6605 C.3     1  UNL1        0.0872
     14 C         138.8219  138.4061  164.8414 C.3     1  UNL1        0.0353
     15 C         140.1598  137.7335  164.7525 C.3     1  UNL1        0.1564
     16 S         141.3593  138.5076  164.2925 S.O2    1  UNL1        0.0087
     17 O         140.7085  138.7234  162.9584 O.2     1  UNL1       -0.1686
     18 O         142.0102  138.2918  165.6266 O.2     1  UNL1       -0.1686
     19 C         142.5590  139.2818  163.8324 C.ar    1  UNL1        0.1057
     20 C         142.4516  140.1989  162.6503 C.ar    1  UNL1        0.0183
     21 C         143.6511  140.9730  162.1902 C.ar    1  UNL1        0.0013
     22 C         144.9581  140.8300  162.9123 C.ar    1  UNL1        0.0001
     23 C         145.0655  139.9130  164.0944 C.ar    1  UNL1        0.0013
     24 C         143.8659  139.1389  164.5545 C.ar    1  UNL1        0.0183
@<TRIPOS>BOND
     1     1     2    2
     2     2    13    1
     3    13    14    1
     4    14    15    1
     5    15    16    1
     6    16    17    2
     7    16    18    2
     8    16    19    1
     9    19    20   ar
    10    20    21   ar
    11    21    22   ar
    12    22    23   ar
    13    23    24   ar
    14     2     3   am
    15     3     5    1
    16     5     6   ar
    17     6     7   ar
    18     7     8   ar
    19     8     9   ar
    20     9    10    2
    21     9    11   ar
    22    24    19   ar
    23    11     5   ar
    24     3     4    1
    25     8    12    1
@<TRIPOS>MOLECULE
*****
 24 25 0 0 0
SMALL
GASTEIGER

@<TRIPOS>ATOM
      1 O         139.5096  141.0260  162.7869 O.2     1  UNL1       -0.2747
      2 C         138.7912  141.2699  164.0809 C.2     1  UNL1        0.2272
      3 N         138.8538  142.6204  164.7306 N.am    1  UNL1       -0.2692
      4 H         138.3823  142.7804  165.5799 H       1  UNL1        0.1563
      5 C         139.6348  143.7271  164.0863 C.ar    1  UNL1        0.1404
      6 C         141.0405  144.0085  164.5276 C.ar    1  UNL1        0.0531
      7 C         141.8216  145.1153  163.8833 C.ar    1  UNL1        0.0788
      8 N         141.1969  145.9406  162.7977 N.ar    1  UNL1       -0.3039
      9 C         139.7912  145.6592  162.3564 C.ar    1  UNL1        0.3480
     10 O         139.1665  146.4845  161.2707 O.2     1  UNL1       -0.2446
     11 N         139.0102  144.5524  163.0007 N.ar    1  UNL1       -0.1773
     12 H         141.7095  146.6670  162.3748 H       1  UNL1        0.1705
     13 C         138.0101  140.1631  164.7252 C.3     1  UNL1        0.0872
     14 C         138.4357  139.6223  166.0581 C.3     1  UNL1        0.0353
     15 C         139.8933  139.4457  166.3651 C.3     1  UNL1        0.1564
     16 S         140.5708  140.3624  167.3400 S.O2    1  UNL1        0.0087
     17 O         141.3529  140.9778  166.2177 O.2     1  UNL1       -0.1686
     18 O         139.7887  139.7470  168.4623 O.2     1  UNL1       -0.1686
     19 C         141.2484  141.2792  168.3149 C.ar    1  UNL1        0.1057
     20 C         140.4749  142.3890  168.9629 C.ar    1  UNL1        0.0183
     21 C         141.1525  143.3057  169.9378 C.ar    1  UNL1        0.0013
     22 C         142.6036  143.1127  170.2646 C.ar    1  UNL1        0.0001
     23 C         143.3772  142.0029  169.6166 C.ar    1  UNL1        0.0013
     24 C         142.6996  141.0862  168.6417 C.ar    1  UNL1        0.0183
@<TRIPOS>BOND
     1     1     2    2
     2     2    13    1
     3    13    14    1
     4    14    15    1
     5    15    16    1
     6    16    17    2
     7    16    18    2
     8    16    19    1
     9    19    20   ar
    10    20    21   ar
    11    21    22   ar
    12    22    23   ar
    13    23    24   ar
    14     2     3   am
    15     3     5    1
    16     5     6   ar
    17     6     7   ar
    18     7     8   ar
    19     8     9   ar
    20     9    10    2
    21     9    11   ar
    22    24    19   ar
    23    11     5   ar
    24     3     4    1
    25     8    12    1
@<TRIPOS>MOLECULE
*****
 24 25 0 0 0
SMALL
GASTEIGER

@<TRIPOS>ATOM
      1 O         142.8087  140.0099  167.2219 O.2     1  UNL1       -0.2747
      2 C         141.4556  139.5718  166.7452 C.2     1  UNL1        0.2272
      3 N         140.2331  139.9065  167.5473 N.am    1  UNL1       -0.2692
      4 H         139.3451  139.6189  167.2345 H       1  UNL1        0.1563
      5 C         140.3637  140.6794  168.8263 C.ar    1  UNL1        0.1404
      6 C         140.6674  139.9623  170.1082 C.ar    1  UNL1        0.0531
      7 C         140.7980  140.7352  171.3871 C.ar    1  UNL1        0.0788
      8 N         140.6248  142.2252  171.3841 N.ar    1  UNL1       -0.3039
      9 C         140.3211  142.9422  170.1021 C.ar    1  UNL1        0.3480
     10 O         140.1479  144.4322  170.0989 O.2     1  UNL1       -0.2446
     11 N         140.1905  142.1693  168.8232 N.ar    1  UNL1       -0.1773
     12 H         140.7105  142.7324  172.2234 H       1  UNL1        0.1705
     13 C         141.3250  138.7989  165.4663 C.3     1  UNL1        0.0872
     14 C         140.0286  138.1251  165.1261 C.3     1  UNL1        0.0353
     15 C         139.0605  138.7894  164.1927 C.3     1  UNL1        0.1564
     16 S         138.8955  140.2800  164.2193 S.O2    1  UNL1        0.0087
     17 O         138.1056  140.1699  165.4897 O.2     1  UNL1       -0.1686
     18 O         139.6855  140.3902  162.9490 O.2     1  UNL1       -0.1686
     19 C         138.7306  141.7707  164.2460 C.ar    1  UNL1        0.1057
     20 C         139.4679  142.5888  165.2644 C.ar    1  UNL1        0.0183
     21 C         139.3029  144.0794  165.2910 C.ar    1  UNL1        0.0013
     22 C         138.4006  144.7520  164.2993 C.ar    1  UNL1        0.0001
     23 C         137.6632  143.9340  163.2810 C.ar    1  UNL1        0.0013
     24 C         137.8282  142.4433  163.2543 C.ar    1  UNL1        0.0183
@<TRIPOS>BOND
     1     1     2    2
     2     2    13    1
     3    13    14    1
     4    14    15    1
     5    15    16    1
     6    16    17    2
     7    16    18    2
     8    16    19    1
     9    19    20   ar
    10    20    21   ar
    11    21    22   ar
    12    22    23   ar
    13    23    24   ar
    14     2     3   am
    15     3     5    1
    16     5     6   ar
    17     6     7   ar
    18     7     8   ar
    19     8     9   ar
    20     9    10    2
    21     9    11   ar
    22    24    19   ar
    23    11     5   ar
    24     3     4    1
    25     8    12    1
@<TRIPOS>MOLECULE
*****
 24 25 0 0 0
SMALL
GASTEIGER

@<TRIPOS>ATOM
      1 O         142.9995  137.8971  162.1369 O.2     1  UNL1       -0.2747
      2 C         142.1286  138.2367  163.3101 C.2     1  UNL1        0.2272
      3 N         142.3021  139.5474  164.0185 N.am    1  UNL1       -0.2692
      4 H         141.7305  139.7703  164.7884 H       1  UNL1        0.1563
      5 C         143.3465  140.5186  163.5537 C.ar    1  UNL1        0.1404
      6 C         144.7460  140.4266  164.0855 C.ar    1  UNL1        0.0531
      7 C         145.7903  141.3979  163.6207 C.ar    1  UNL1        0.0788
      8 N         145.4352  142.4611  162.6241 N.ar    1  UNL1       -0.3039
      9 C         144.0357  142.5530  162.0922 C.ar    1  UNL1        0.3480
     10 O         143.6805  143.6163  161.0954 O.2     1  UNL1       -0.2446
     11 N         142.9914  141.5818  162.5570 N.ar    1  UNL1       -0.1773
     12 H         146.1207  143.0985  162.3190 H       1  UNL1        0.1705
     13 C         141.0842  137.2654  163.7750 C.3     1  UNL1        0.0872
     14 C         140.0546  137.6943  164.7779 C.3     1  UNL1        0.0353
     15 C         138.8635  138.4917  164.3358 C.3     1  UNL1        0.1564
     16 S         138.8343  139.9764  164.5475 S.O2    1  UNL1        0.0087
     17 O         139.7690  139.8288  165.7112 O.2     1  UNL1       -0.1686
     18 O         137.8995  140.1239  163.3837 O.2     1  UNL1       -0.1686
     19 C         138.8051  141.4611  164.7592 C.ar    1  UNL1        0.1057
     20 C         137.7377  142.2906  164.1091 C.ar    1  UNL1        0.0183
     21 C         137.7086  143.7752  164.3209 C.ar    1  UNL1        0.0013
     22 C         138.7468  144.4304  165.1828 C.ar    1  UNL1        0.0001
     23 C         139.8142  143.6009  165.8329 C.ar    1  UNL1        0.0013
     24 C         139.8433  142.1163  165.6211 C.ar    1  UNL1        0.0183
@<TRIPOS>BOND
     1     1     2    2
     2     2    13    1
     3    13    14    1
     4    14    15    1
     5    15    16    1
     6    16    17    2
     7    16    18    2
     8    16    19    1
     9    19    20   ar
    10    20    21   ar
    11    21    22   ar
    12    22    23   ar
    13    23    24   ar
    14     2     3   am
    15     3     5    1
    16     5     6   ar
    17     6     7   ar
    18     7     8   ar
    19     8     9   ar
    20     9    10    2
    21     9    11   ar
    22    24    19   ar
    23    11     5   ar
    24     3     4    1
    25     8    12    1
@<TRIPOS>MOLECULE
*****
 24 25 0 0 0
SMALL
GASTEIGER

@<TRIPOS>ATOM
      1 O         142.9643  139.1272  168.2782 O.2     1  UNL1       -0.2747
      2 C         142.3547  139.4284  166.9411 C.2     1  UNL1        0.2272
      3 N         141.0797  140.2143  166.8580 N.am    1  UNL1       -0.2692
      4 H         140.6797  140.4119  165.9804 H       1  UNL1        0.1563
      5 C         140.4144  140.6990  168.1119 C.ar    1  UNL1        0.1404
      6 C         140.8120  142.0153  168.7113 C.ar    1  UNL1        0.0531
      7 C         140.1466  142.5000  169.9652 C.ar    1  UNL1        0.0788
      8 N         139.0836  141.6685  170.6197 N.ar    1  UNL1       -0.3039
      9 C         138.6859  140.3522  170.0203 C.ar    1  UNL1        0.3480
     10 O         137.6228  139.5206  170.6748 O.2     1  UNL1       -0.2446
     11 N         139.3513  139.8675  168.7664 N.ar    1  UNL1       -0.1773
     12 H         138.6468  141.9866  171.4427 H       1  UNL1        0.1705
     13 C         143.0201  138.9437  165.6872 C.3     1  UNL1        0.0872
     14 C         142.2199  138.7787  164.4292 C.3     1  UNL1        0.0353
     15 C         142.1114  139.9141  163.4550 C.3     1  UNL1        0.1564
     16 S         141.0822  140.9852  163.6631 S.O2    1  UNL1        0.0087
     17 O         140.0640  139.9395  164.0093 O.2     1  UNL1       -0.1686
     18 O         142.1004  142.0308  163.3170 O.2     1  UNL1       -0.1686
     19 C         140.0529  142.0563  163.8713 C.ar    1  UNL1        0.1057
     20 C         138.8403  142.1127  162.9901 C.ar    1  UNL1        0.0183
     21 C         137.8111  143.1838  163.1983 C.ar    1  UNL1        0.0013
     22 C         137.9944  144.1985  164.2877 C.ar    1  UNL1        0.0001
     23 C         139.2069  144.1421  165.1689 C.ar    1  UNL1        0.0013
     24 C         140.2361  143.0710  164.9607 C.ar    1  UNL1        0.0183
@<TRIPOS>BOND
     1     1     2    2
     2     2    13    1
     3    13    14    1
     4    14    15    1
     5    15    16    1
     6    16    17    2
     7    16    18    2
     8    16    19    1
     9    19    20   ar
    10    20    21   ar
    11    21    22   ar
    12    22    23   ar
    13    23    24   ar
    14     2     3   am
    15     3     5    1
    16     5     6   ar
    17     6     7   ar
    18     7     8   ar
    19     8     9   ar
    20     9    10    2
    21     9    11   ar
    22    24    19   ar
    23    11     5   ar
    24     3     4    1
    25     8    12    1
@<TRIPOS>MOLECULE
*****
 24 25 0 0 0
SMALL
GASTEIGER

@<TRIPOS>ATOM
      1 O         141.1651  138.3924  165.4067 O.2     1  UNL1       -0.2747
      2 C         139.7229  138.5048  165.0099 C.2     1  UNL1        0.2272
      3 N         138.7893  139.3628  165.8111 N.am    1  UNL1       -0.2692
      4 H         137.8427  139.4366  165.5507 H       1  UNL1        0.1563
      5 C         139.2978  140.1085  167.0092 C.ar    1  UNL1        0.1404
      6 C         140.0635  141.3856  166.8284 C.ar    1  UNL1        0.0531
      7 C         140.5720  142.1312  168.0265 C.ar    1  UNL1        0.0788
      8 N         140.3149  141.5998  169.4054 N.ar    1  UNL1       -0.3039
      9 C         139.5491  140.3228  169.5862 C.ar    1  UNL1        0.3480
     10 O         139.2919  139.7913  170.9652 O.2     1  UNL1       -0.2446
     11 N         139.0406  139.5771  168.3881 N.ar    1  UNL1       -0.1773
     12 H         140.6486  142.0892  170.1917 H       1  UNL1        0.1705
     13 C         139.2143  137.7591  163.8118 C.3     1  UNL1        0.0872
     14 C         139.3904  138.3367  162.4386 C.3     1  UNL1        0.0353
     15 C         138.5653  139.5131  162.0083 C.3     1  UNL1        0.1564
     16 S         138.7283  140.8356  162.6970 S.O2    1  UNL1        0.0087
     17 O         137.3469  140.7087  163.2677 O.2     1  UNL1       -0.1686
     18 O         140.1097  140.9625  162.1264 O.2     1  UNL1       -0.1686
     19 C         138.8913  142.1582  163.3858 C.ar    1  UNL1        0.1057
     20 C         140.2267  142.8412  163.3917 C.ar    1  UNL1        0.0183
     21 C         140.3897  144.1637  164.0804 C.ar    1  UNL1        0.0013
     22 C         139.2172  144.8032  164.7632 C.ar    1  UNL1        0.0001
     23 C         137.8817  144.1202  164.7573 C.ar    1  UNL1        0.0013
     24 C         137.7188  142.7977  164.0686 C.ar    1  UNL1        0.0183
@<TRIPOS>BOND
     1     1     2    2
     2     2    13    1
     3    13    14    1
     4    14    15    1
     5    15    16    1
     6    16    17    2
     7    16    18    2
     8    16    19    1
     9    19    20   ar
    10    20    21   ar
    11    21    22   ar
    12    22    23   ar
    13    23    24   ar
    14     2     3   am
    15     3     5    1
    16     5     6   ar
    17     6     7   ar
    18     7     8   ar
    19     8     9   ar
    20     9    10    2
    21     9    11   ar
    22    24    19   ar
    23    11     5   ar
    24     3     4    1
    25     8    12    1
@<TRIPOS>MOLECULE
*****
 24 25 0 0 0
SMALL
GASTEIGER

@<TRIPOS>ATOM
      1 O         143.2781  138.8223  167.6130 O.2     1  UNL1       -0.2747
      2 C         142.3785  139.5934  166.6930 C.2     1  UNL1        0.2272
      3 N         141.7408  140.8676  167.1618 N.am    1  UNL1       -0.2692
      4 H         141.1504  141.3736  166.5581 H       1  UNL1        0.1563
      5 C         142.0026  141.3707  168.5504 C.ar    1  UNL1        0.1404
      6 C         143.1527  142.2986  168.8075 C.ar    1  UNL1        0.0531
      7 C         143.4145  142.8017  170.1962 C.ar    1  UNL1        0.0788
      8 N         142.5263  142.3769  171.3277 N.ar    1  UNL1       -0.3039
      9 C         141.3762  141.4489  171.0706 C.ar    1  UNL1        0.3480
     10 O         140.4878  141.0240  172.2022 O.2     1  UNL1       -0.2446
     11 N         141.1143  140.9458  169.6820 N.ar    1  UNL1       -0.1773
     12 H         142.6981  142.7071  172.2391 H       1  UNL1        0.1705
     13 C         142.1167  139.0903  165.3044 C.3     1  UNL1        0.0872
     14 C         140.9229  138.2233  165.0335 C.3     1  UNL1        0.0353
     15 C         139.6350  138.8419  164.5767 C.3     1  UNL1        0.1564
     16 S         139.4919  140.3345  164.5385 S.O2    1  UNL1        0.0087
     17 O         139.9349  140.3403  163.1055 O.2     1  UNL1       -0.1686
     18 O         139.0489  140.3286  165.9716 O.2     1  UNL1       -0.1686
     19 C         139.3488  141.8272  164.5003 C.ar    1  UNL1        0.1057
     20 C         140.5672  142.6948  164.3884 C.ar    1  UNL1        0.0183
     21 C         140.4241  144.1875  164.3502 C.ar    1  UNL1        0.0013
     22 C         139.0625  144.8125  164.4240 C.ar    1  UNL1        0.0001
     23 C         137.8440  143.9448  164.5359 C.ar    1  UNL1        0.0013
     24 C         137.9872  142.4522  164.5741 C.ar    1  UNL1        0.0183
@<TRIPOS>BOND
     1     1     2    2
     2     2    13    1
     3    13    14    1
     4    14    15    1
     5    15    16    1
     6    16    17    2
     7    16    18    2
     8    16    19    1
     9    19    20   ar
    10    20    21   ar
    11    21    22   ar
    12    22    23   ar
    13    23    24   ar
    14     2     3   am
    15     3     5    1
    16     5     6   ar
    17     6     7   ar
    18     7     8   ar
    19     8     9   ar
    20     9    10    2
    21     9    11   ar
    22    24    19   ar
    23    11     5   ar
    24     3     4    1
    25     8    12    1
@<TRIPOS>MOLECULE
*****
 24 25 0 0 0
SMALL
GASTEIGER

@<TRIPOS>ATOM
      1 O         136.9205  141.3804  162.8615 O.2     1  UNL1       -0.2747
      2 C         137.9252  140.7005  161.9792 C.2     1  UNL1        0.2272
      3 N         139.2360  141.3669  161.6831 N.am    1  UNL1       -0.2692
      4 H         139.8954  140.9207  161.1041 H       1  UNL1        0.1563
      5 C         139.5422  142.7132  162.2694 C.ar    1  UNL1        0.1404
      6 C         140.1594  142.8148  163.6327 C.ar    1  UNL1        0.0531
      7 C         140.4656  144.1611  164.2190 C.ar    1  UNL1        0.0788
      8 N         140.1546  145.4059  163.4419 N.ar    1  UNL1       -0.3039
      9 C         139.5373  145.3043  162.0786 C.ar    1  UNL1        0.3480
     10 O         139.2262  146.5491  161.3015 O.2     1  UNL1       -0.2446
     11 N         139.2311  143.9580  161.4924 N.ar    1  UNL1       -0.1773
     12 H         140.3555  146.2895  163.8267 H       1  UNL1        0.1705
     13 C         137.6190  139.3542  161.3929 C.3     1  UNL1        0.0872
     14 C         138.5530  138.2041  161.6274 C.3     1  UNL1        0.0353
     15 C         139.0102  137.8809  163.0189 C.3     1  UNL1        0.1564
     16 S         140.4151  138.1966  163.4391 S.O2    1  UNL1        0.0087
     17 O         140.9384  137.2460  162.4034 O.2     1  UNL1       -0.1686
     18 O         139.8919  139.1471  164.4747 O.2     1  UNL1       -0.1686
     19 C         141.8202  138.5122  163.8592 C.ar    1  UNL1        0.1057
     20 C         142.2187  138.3850  165.2996 C.ar    1  UNL1        0.0183
     21 C         143.6237  138.7006  165.7197 C.ar    1  UNL1        0.0013
     22 C         144.6300  139.1434  164.6993 C.ar    1  UNL1        0.0001
     23 C         144.2314  139.2706  163.2589 C.ar    1  UNL1        0.0013
     24 C         142.8265  138.9550  162.8388 C.ar    1  UNL1        0.0183
@<TRIPOS>BOND
     1     1     2    2
     2     2    13    1
     3    13    14    1
     4    14    15    1
     5    15    16    1
     6    16    17    2
     7    16    18    2
     8    16    19    1
     9    19    20   ar
    10    20    21   ar
    11    21    22   ar
    12    22    23   ar
    13    23    24   ar
    14     2     3   am
    15     3     5    1
    16     5     6   ar
    17     6     7   ar
    18     7     8   ar
    19     8     9   ar
    20     9    10    2
    21     9    11   ar
    22    24    19   ar
    23    11     5   ar
    24     3     4    1
    25     8    12    1
