@<TRIPOS>MOLECULE
*****
 36 42 0 0 0
SMALL
GASTEIGER

@<TRIPOS>ATOM
      1 N         141.4754  143.3951  164.4653 N.pl3   1  UNL1       -0.3425
      2 C         140.8634  144.1672  163.3342 C.ar    1  UNL1        0.1300
      3 N         139.6846  145.0596  163.5866 N.ar    1  UNL1       -0.2094
      4 C         139.0726  145.8317  162.4555 C.ar    1  UNL1        0.2014
      5 N         139.6395  145.7113  161.0720 N.ar    1  UNL1       -0.2065
      6 C         140.8184  144.8189  160.8196 C.ar    1  UNL1        0.1482
      7 C         141.4303  144.0468  161.9508 C.ar    1  UNL1        0.0668
      8 C         142.5781  143.2521  161.4020 C.ar    1  UNL1        0.0229
      9 C         142.6755  143.5330  159.9317 C.ar    1  UNL1        0.0771
     10 N         141.5879  144.5013  159.5719 N.ar    1  UNL1       -0.3133
     11 H         141.1033  143.4742  165.3734 H       1  UNL1        0.1437
     12 H         142.2492  142.8094  164.2997 H       1  UNL1        0.1437
     13 C         143.4716  142.3371  162.1859 C.ar    1  UNL1        0.0046
     14 C         144.6772  142.8869  162.8886 C.ar    1  UNL1        0.0003
     15 C         145.5707  141.9720  163.6725 C.ar    1  UNL1        0.0031
     16 C         145.2585  140.5071  163.7537 C.ar    1  UNL1        0.0369
     17 C         144.0528  139.9572  163.0510 C.ar    1  UNL1        0.1387
     18 C         143.1593  140.8722  162.2670 C.ar    1  UNL1        0.0369
     19 O         143.7405  138.4923  163.1321 O.3     1  UNL1       -0.4729
     20 C         142.5703  137.9322  162.3792 C.3     1  UNL1        0.2321
     21 C         141.2385  137.7962  163.0561 C.3     1  UNL1        0.1329
     22 C         141.0142  137.5319  164.5155 C.3     1  UNL1        0.0334
     23 C         139.5344  137.4730  164.7538 C.3     1  UNL1        0.0321
     24 C         138.8442  137.7010  163.4417 C.3     1  UNL1        0.1153
     25 C         139.0686  137.9653  161.9823 C.3     1  UNL1        0.0321
     26 C         140.5483  138.0242  161.7440 C.3     1  UNL1        0.0334
     27 O         139.8974  137.9007  162.3925 O.3     1  UNL1       -0.3574
     28 C         141.3173  145.0549  158.2043 C.3     1  UNL1        0.0870
     29 C         140.1392  145.0590  157.2756 C.3     1  UNL1        0.0240
     30 C         140.9346  145.8378  156.2702 C.3     1  UNL1        0.0197
     31 C         142.1126  145.8336  157.1987 C.3     1  UNL1        0.0240
     32 C         140.6640  146.3914  154.9025 C.3     1  UNL1        0.0722
     33 N         140.0881  147.7681  154.7512 N.3     1  UNL1       -0.2726
     34 C         139.0057  148.5465  155.4387 C.3     1  UNL1        0.0735
     35 C         139.2735  149.7151  154.5371 C.3     1  UNL1        0.0346
     36 C         140.3558  148.9367  153.8496 C.3     1  UNL1        0.0735
@<TRIPOS>BOND
     1     1     2    1
     2     2     3   ar
     3     3     4   ar
     4     4     5   ar
     5     5     6   ar
     6     6     7   ar
     7     7     8   ar
     8     8    13    1
     9    13    14   ar
    10    14    15   ar
    11    15    16   ar
    12    16    17   ar
    13    17    19    1
    14    19    20    1
    15    20    21    1
    16    21    22    1
    17    22    23    1
    18    23    24    1
    19    24    25    1
    20    25    26    1
    21    24    27    1
    22    17    18   ar
    23     8     9   ar
    24     9    10   ar
    25    28    10    1
    26    28    29    1
    27    29    30    1
    28    30    32    1
    29    32    33    1
    30    33    34    1
    31    34    35    1
    32    35    36    1
    33    30    31    1
    34     7     2   ar
    35    18    13   ar
    36    31    28    1
    37    10     6   ar
    38    36    33    1
    39    26    21    1
    40    27    21    1
    41     1    11    1
    42     1    12    1
@<TRIPOS>MOLECULE
*****
 36 42 0 0 0
SMALL
GASTEIGER

@<TRIPOS>ATOM
      1 N         142.3431  144.7649  161.6375 N.pl3   1  UNL1       -0.3425
      2 C         141.8014  144.3575  160.2995 C.ar    1  UNL1        0.1300
      3 N         142.5689  144.6764  159.0508 N.ar    1  UNL1       -0.2094
      4 C         142.0271  144.2690  157.7127 C.ar    1  UNL1        0.2014
      5 N         140.7178  143.5427  157.6233 N.ar    1  UNL1       -0.2065
      6 C         139.9503  143.2237  158.8719 C.ar    1  UNL1        0.1482
      7 C         140.4920  143.6312  160.2100 C.ar    1  UNL1        0.0668
      8 C         139.5190  143.1831  161.2600 C.ar    1  UNL1        0.0229
      9 C         138.3759  142.4987  160.5709 C.ar    1  UNL1        0.0771
     10 N         138.6424  142.5239  159.0949 N.ar    1  UNL1       -0.3133
     11 H         143.2025  145.2417  161.6962 H       1  UNL1        0.1437
     12 H         141.8394  144.5556  162.4571 H       1  UNL1        0.1437
     13 C         139.6638  143.3841  162.7394 C.ar    1  UNL1        0.0046
     14 C         138.9567  144.5217  163.4145 C.ar    1  UNL1        0.0003
     15 C         139.1014  144.7227  164.8939 C.ar    1  UNL1        0.0031
     16 C         139.9533  143.7860  165.6983 C.ar    1  UNL1        0.0369
     17 C         140.6605  142.6484  165.0232 C.ar    1  UNL1        0.1387
     18 C         140.5157  142.4474  163.5438 C.ar    1  UNL1        0.0369
     19 O         141.5124  141.7118  165.8274 O.3     1  UNL1       -0.4729
     20 C         141.4151  140.2315  165.6052 C.3     1  UNL1        0.2321
     21 C         140.1426  139.5064  165.9296 C.3     1  UNL1        0.1329
     22 C         139.2035  139.8329  167.0527 C.3     1  UNL1        0.0334
     23 C         138.0665  138.8558  167.0051 C.3     1  UNL1        0.0321
     24 C         138.3028  137.9254  165.8526 C.3     1  UNL1        0.1153
     25 C         139.2419  137.5989  164.7294 C.3     1  UNL1        0.0321
     26 C         140.3790  138.5760  164.7770 C.3     1  UNL1        0.0334
     27 O         139.5859  138.3275  165.1878 O.3     1  UNL1       -0.3574
     28 C         137.7566  141.9499  158.0291 C.3     1  UNL1        0.0870
     29 C         137.2503  140.5777  157.6961 C.3     1  UNL1        0.0240
     30 C         136.5039  141.1381  156.5219 C.3     1  UNL1        0.0197
     31 C         137.0102  142.5102  156.8549 C.3     1  UNL1        0.0240
     32 C         135.6181  140.5641  155.4561 C.3     1  UNL1        0.0722
     33 N         134.1459  140.4177  155.7030 N.3     1  UNL1       -0.2726
     34 C         133.2686  139.3465  156.2801 C.3     1  UNL1        0.0735
     35 C         132.0638  140.2105  156.0522 C.3     1  UNL1        0.0346
     36 C         132.9410  141.2816  155.4751 C.3     1  UNL1        0.0735
@<TRIPOS>BOND
     1     1     2    1
     2     2     3   ar
     3     3     4   ar
     4     4     5   ar
     5     5     6   ar
     6     6     7   ar
     7     7     8   ar
     8     8    13    1
     9    13    14   ar
    10    14    15   ar
    11    15    16   ar
    12    16    17   ar
    13    17    19    1
    14    19    20    1
    15    20    21    1
    16    21    22    1
    17    22    23    1
    18    23    24    1
    19    24    25    1
    20    25    26    1
    21    24    27    1
    22    17    18   ar
    23     8     9   ar
    24     9    10   ar
    25    28    10    1
    26    28    29    1
    27    29    30    1
    28    30    32    1
    29    32    33    1
    30    33    34    1
    31    34    35    1
    32    35    36    1
    33    30    31    1
    34     7     2   ar
    35    18    13   ar
    36    31    28    1
    37    10     6   ar
    38    36    33    1
    39    26    21    1
    40    27    21    1
    41     1    11    1
    42     1    12    1
@<TRIPOS>MOLECULE
*****
 36 42 0 0 0
SMALL
GASTEIGER

@<TRIPOS>ATOM
      1 N         142.1721  145.1087  161.4668 N.pl3   1  UNL1       -0.3425
      2 C         141.5657  144.7930  160.1317 C.ar    1  UNL1        0.1300
      3 N         142.1680  145.3614  158.8811 N.ar    1  UNL1       -0.2094
      4 C         141.5615  145.0457  157.5459 C.ar    1  UNL1        0.2014
      5 N         140.3528  144.1616  157.4614 N.ar    1  UNL1       -0.2065
      6 C         139.7504  143.5932  158.7121 C.ar    1  UNL1        0.1482
      7 C         140.3569  143.9089  160.0472 C.ar    1  UNL1        0.0668
      8 C         139.5498  143.2089  161.1001 C.ar    1  UNL1        0.0229
      9 C         138.4445  142.4605  160.4157 C.ar    1  UNL1        0.0771
     10 N         138.5685  142.6981  158.9398 N.ar    1  UNL1       -0.3133
     11 H         142.9655  145.6889  161.5223 H       1  UNL1        0.1437
     12 H         141.7768  144.7356  162.2876 H       1  UNL1        0.1437
     13 C         139.8034  143.2500  162.5779 C.ar    1  UNL1        0.0046
     14 C         139.2495  144.3735  163.4030 C.ar    1  UNL1        0.0003
     15 C         139.5032  144.4146  164.8808 C.ar    1  UNL1        0.0031
     16 C         140.3108  143.3322  165.5336 C.ar    1  UNL1        0.0369
     17 C         140.8647  142.2086  164.7085 C.ar    1  UNL1        0.1387
     18 C         140.6111  142.1675  163.2307 C.ar    1  UNL1        0.0369
     19 O         141.6723  141.1261  165.3612 O.3     1  UNL1       -0.4729
     20 C         140.9856  140.0469  166.1445 C.3     1  UNL1        0.2321
     21 C         141.2632  139.8919  167.6105 C.3     1  UNL1        0.1329
     22 C         142.5770  139.5064  168.2231 C.3     1  UNL1        0.0334
     23 C         142.4014  139.4715  169.7124 C.3     1  UNL1        0.0321
     24 C         140.9792  139.8353  170.0202 C.3     1  UNL1        0.1153
     25 C         139.6654  140.2208  169.4075 C.3     1  UNL1        0.0321
     26 C         139.8409  140.2557  167.9183 C.3     1  UNL1        0.0334
     27 O         140.2757  140.0951  168.7211 O.3     1  UNL1       -0.3574
     28 C         137.6686  142.1387  157.8781 C.3     1  UNL1        0.0870
     29 C         136.9720  142.7003  156.6741 C.3     1  UNL1        0.0240
     30 C         136.3960  141.3477  156.3765 C.3     1  UNL1        0.0197
     31 C         137.0926  140.7861  157.5803 C.3     1  UNL1        0.0240
     32 C         135.4961  140.7883  155.3147 C.3     1  UNL1        0.0722
     33 N         134.0222  140.6696  155.5669 N.3     1  UNL1       -0.2726
     34 C         132.8026  141.4026  155.0922 C.3     1  UNL1        0.0735
     35 C         131.9378  140.5018  155.9234 C.3     1  UNL1        0.0346
     36 C         133.1574  139.7689  156.3980 C.3     1  UNL1        0.0735
@<TRIPOS>BOND
     1     1     2    1
     2     2     3   ar
     3     3     4   ar
     4     4     5   ar
     5     5     6   ar
     6     6     7   ar
     7     7     8   ar
     8     8    13    1
     9    13    14   ar
    10    14    15   ar
    11    15    16   ar
    12    16    17   ar
    13    17    19    1
    14    19    20    1
    15    20    21    1
    16    21    22    1
    17    22    23    1
    18    23    24    1
    19    24    25    1
    20    25    26    1
    21    24    27    1
    22    17    18   ar
    23     8     9   ar
    24     9    10   ar
    25    28    10    1
    26    28    29    1
    27    29    30    1
    28    30    32    1
    29    32    33    1
    30    33    34    1
    31    34    35    1
    32    35    36    1
    33    30    31    1
    34     7     2   ar
    35    18    13   ar
    36    31    28    1
    37    10     6   ar
    38    36    33    1
    39    26    21    1
    40    27    21    1
    41     1    11    1
    42     1    12    1
@<TRIPOS>MOLECULE
*****
 36 42 0 0 0
SMALL
GASTEIGER

@<TRIPOS>ATOM
      1 N         139.4273  138.8517  157.6521 N.pl3   1  UNL1       -0.3425
      2 C         139.3990  138.9314  159.1497 C.ar    1  UNL1        0.1300
      3 N         138.1256  139.2874  159.8579 N.ar    1  UNL1       -0.2094
      4 C         138.0973  139.3671  161.3555 C.ar    1  UNL1        0.2014
      5 N         139.3425  139.0910  162.1449 N.ar    1  UNL1       -0.2065
      6 C         140.6159  138.7350  161.4367 C.ar    1  UNL1        0.1482
      7 C         140.6442  138.6553  159.9391 C.ar    1  UNL1        0.0668
      8 C         142.0359  138.2835  159.5209 C.ar    1  UNL1        0.0229
      9 C         142.8678  138.1336  160.7601 C.ar    1  UNL1        0.0771
     10 N         141.9902  138.4126  161.9441 N.ar    1  UNL1       -0.3133
     11 H         138.6100  139.0330  157.1340 H       1  UNL1        0.1437
     12 H         140.2631  138.6181  157.1873 H       1  UNL1        0.1437
     13 C         142.5122  138.0949  158.1111 C.ar    1  UNL1        0.0046
     14 C         142.9270  139.2826  157.2943 C.ar    1  UNL1        0.0003
     15 C         143.4032  139.0940  155.8845 C.ar    1  UNL1        0.0031
     16 C         143.4646  137.7176  155.2914 C.ar    1  UNL1        0.0369
     17 C         143.0498  136.5298  156.1081 C.ar    1  UNL1        0.1387
     18 C         142.5736  136.7184  157.5180 C.ar    1  UNL1        0.0369
     19 O         143.1111  135.1534  155.5152 O.3     1  UNL1       -0.4729
     20 C         142.4938  133.9955  156.2419 C.3     1  UNL1        0.2321
     21 C         143.3683  132.9394  156.8502 C.3     1  UNL1        0.1329
     22 C         144.5969  133.1803  157.6764 C.3     1  UNL1        0.0334
     23 C         145.1556  131.8468  158.0758 C.3     1  UNL1        0.0321
     24 C         144.2724  130.7818  157.4966 C.3     1  UNL1        0.1153
     25 C         143.0437  130.5409  156.6704 C.3     1  UNL1        0.0321
     26 C         142.4850  131.8744  156.2709 C.3     1  UNL1        0.0334
     27 O         143.1677  131.4570  156.7391 O.3     1  UNL1       -0.3574
     28 C         142.4127  138.3757  163.3829 C.3     1  UNL1        0.0870
     29 C         141.9008  137.7022  164.6217 C.3     1  UNL1        0.0240
     30 C         143.0101  138.3234  165.4177 C.3     1  UNL1        0.0197
     31 C         143.5219  138.9968  164.1790 C.3     1  UNL1        0.0240
     32 C         143.4325  138.2865  166.8565 C.3     1  UNL1        0.0722
     33 N         142.9226  139.3218  167.8147 N.3     1  UNL1       -0.2726
     34 C         142.5875  140.7808  167.7203 C.3     1  UNL1        0.0735
     35 C         142.2015  140.7860  169.1697 C.3     1  UNL1        0.0346
     36 C         142.5365  139.3269  169.2642 C.3     1  UNL1        0.0735
@<TRIPOS>BOND
     1     1     2    1
     2     2     3   ar
     3     3     4   ar
     4     4     5   ar
     5     5     6   ar
     6     6     7   ar
     7     7     8   ar
     8     8    13    1
     9    13    14   ar
    10    14    15   ar
    11    15    16   ar
    12    16    17   ar
    13    17    19    1
    14    19    20    1
    15    20    21    1
    16    21    22    1
    17    22    23    1
    18    23    24    1
    19    24    25    1
    20    25    26    1
    21    24    27    1
    22    17    18   ar
    23     8     9   ar
    24     9    10   ar
    25    28    10    1
    26    28    29    1
    27    29    30    1
    28    30    32    1
    29    32    33    1
    30    33    34    1
    31    34    35    1
    32    35    36    1
    33    30    31    1
    34     7     2   ar
    35    18    13   ar
    36    31    28    1
    37    10     6   ar
    38    36    33    1
    39    26    21    1
    40    27    21    1
    41     1    11    1
    42     1    12    1
@<TRIPOS>MOLECULE
*****
 36 42 0 0 0
SMALL
GASTEIGER

@<TRIPOS>ATOM
      1 N         138.0392  140.7132  162.4317 N.pl3   1  UNL1       -0.3425
      2 C         138.1647  141.0526  160.9760 C.ar    1  UNL1        0.1300
      3 N         137.6161  140.1188  159.9382 N.ar    1  UNL1       -0.2094
      4 C         137.7416  140.4582  158.4825 C.ar    1  UNL1        0.2014
      5 N         138.4157  141.7313  158.0646 N.ar    1  UNL1       -0.2065
      6 C         138.9643  142.6650  159.1024 C.ar    1  UNL1        0.1482
      7 C         138.8388  142.3257  160.5581 C.ar    1  UNL1        0.0668
      8 C         139.4714  143.4327  161.3483 C.ar    1  UNL1        0.0229
      9 C         139.9879  144.4562  160.3810 C.ar    1  UNL1        0.0771
     10 N         139.6744  143.9817  158.9929 N.ar    1  UNL1       -0.3133
     11 H         137.5968  139.8776  162.7060 H       1  UNL1        0.1437
     12 H         138.3993  141.3261  163.1129 H       1  UNL1        0.1437
     13 C         139.5702  143.5036  162.8433 C.ar    1  UNL1        0.0046
     14 C         138.5877  144.3275  163.6217 C.ar    1  UNL1        0.0003
     15 C         138.6865  144.3984  165.1167 C.ar    1  UNL1        0.0031
     16 C         139.7679  143.6455  165.8335 C.ar    1  UNL1        0.0369
     17 C         140.7505  142.8217  165.0552 C.ar    1  UNL1        0.1387
     18 C         140.6517  142.7507  163.5601 C.ar    1  UNL1        0.0369
     19 O         141.8318  142.0687  165.7719 O.3     1  UNL1       -0.4729
     20 C         141.8042  140.5694  165.8080 C.3     1  UNL1        0.2321
     21 C         140.4914  139.8437  165.8241 C.3     1  UNL1        0.1329
     22 C         139.3877  140.0398  166.8207 C.3     1  UNL1        0.0334
     23 C         138.2662  139.1118  166.4589 C.3     1  UNL1        0.0321
     24 C         138.6767  138.3421  165.2387 C.3     1  UNL1        0.1153
     25 C         139.7805  138.1460  164.2420 C.3     1  UNL1        0.0321
     26 C         140.9020  139.0740  164.6038 C.3     1  UNL1        0.0334
     27 O         140.0520  138.7944  164.8463 O.3     1  UNL1       -0.3574
     28 C         140.0119  144.6982  157.7190 C.3     1  UNL1        0.0870
     29 C         140.0906  144.3095  156.2723 C.3     1  UNL1        0.0240
     30 C         140.4892  145.7114  155.9174 C.3     1  UNL1        0.0197
     31 C         140.4105  146.1000  157.3640 C.3     1  UNL1        0.0240
     32 C         140.8267  146.4278  154.6435 C.3     1  UNL1        0.0722
     33 N         140.2881  147.8051  154.3923 N.3     1  UNL1       -0.2726
     34 C         140.6107  148.9112  153.4319 C.3     1  UNL1        0.0735
     35 C         139.5264  149.7528  154.0369 C.3     1  UNL1        0.0346
     36 C         139.2038  148.6467  154.9974 C.3     1  UNL1        0.0735
@<TRIPOS>BOND
     1     1     2    1
     2     2     3   ar
     3     3     4   ar
     4     4     5   ar
     5     5     6   ar
     6     6     7   ar
     7     7     8   ar
     8     8    13    1
     9    13    14   ar
    10    14    15   ar
    11    15    16   ar
    12    16    17   ar
    13    17    19    1
    14    19    20    1
    15    20    21    1
    16    21    22    1
    17    22    23    1
    18    23    24    1
    19    24    25    1
    20    25    26    1
    21    24    27    1
    22    17    18   ar
    23     8     9   ar
    24     9    10   ar
    25    28    10    1
    26    28    29    1
    27    29    30    1
    28    30    32    1
    29    32    33    1
    30    33    34    1
    31    34    35    1
    32    35    36    1
    33    30    31    1
    34     7     2   ar
    35    18    13   ar
    36    31    28    1
    37    10     6   ar
    38    36    33    1
    39    26    21    1
    40    27    21    1
    41     1    11    1
    42     1    12    1
@<TRIPOS>MOLECULE
*****
 36 42 0 0 0
SMALL
GASTEIGER

@<TRIPOS>ATOM
      1 N         144.5420  142.4705  161.3137 N.pl3   1  UNL1       -0.3425
      2 C         144.3133  141.8188  159.9822 C.ar    1  UNL1        0.1300
      3 N         144.7364  142.5159  158.7233 N.ar    1  UNL1       -0.2094
      4 C         144.5076  141.8642  157.3918 C.ar    1  UNL1        0.2014
      5 N         143.8558  140.5152  157.3192 N.ar    1  UNL1       -0.2065
      6 C         143.4326  139.8180  158.5781 C.ar    1  UNL1        0.1482
      7 C         143.6614  140.4698  159.9096 C.ar    1  UNL1        0.0668
      8 C         143.1418  139.5476  160.9724 C.ar    1  UNL1        0.0229
      9 C         142.5919  138.3259  160.2979 C.ar    1  UNL1        0.0771
     10 N         142.7717  138.4931  158.8181 N.ar    1  UNL1       -0.3133
     11 H         144.9699  143.3559  161.3613 H       1  UNL1        0.1437
     12 H         144.2643  142.0129  162.1400 H       1  UNL1        0.1437
     13 C         143.1675  139.8025  162.4504 C.ar    1  UNL1        0.0046
     14 C         144.4005  139.4876  163.2444 C.ar    1  UNL1        0.0003
     15 C         144.4262  139.7424  164.7224 C.ar    1  UNL1        0.0031
     16 C         143.2190  140.3122  165.4064 C.ar    1  UNL1        0.0369
     17 C         141.9859  140.6271  164.6124 C.ar    1  UNL1        0.1387
     18 C         141.9602  140.3723  163.1344 C.ar    1  UNL1        0.0369
     19 O         140.7786  141.1968  165.2963 O.3     1  UNL1       -0.4729
     20 C         140.2551  140.5585  166.5487 C.3     1  UNL1        0.2321
     21 C         140.1902  141.3481  167.8224 C.3     1  UNL1        0.1329
     22 C         140.6686  142.7572  168.0115 C.3     1  UNL1        0.0334
     23 C         140.4096  143.1472  169.4366 C.3     1  UNL1        0.0321
     24 C         139.7712  141.9793  170.1282 C.3     1  UNL1        0.1153
     25 C         139.2928  140.5702  169.9390 C.3     1  UNL1        0.0321
     26 C         139.5518  140.1802  168.5140 C.3     1  UNL1        0.0334
     27 O         139.6356  140.8674  169.1305 O.3     1  UNL1       -0.3574
     28 C         142.3623  137.5081  157.7634 C.3     1  UNL1        0.0870
     29 C         141.1053  137.2454  156.9881 C.3     1  UNL1        0.0240
     30 C         141.7833  136.1153  156.2718 C.3     1  UNL1        0.0197
     31 C         143.0402  136.3780  157.0471 C.3     1  UNL1        0.0240
     32 C         141.3740  135.1303  155.2171 C.3     1  UNL1        0.0722
     33 N         141.6534  133.6689  155.4068 N.3     1  UNL1       -0.2726
     34 C         141.1001  132.3996  154.8298 C.3     1  UNL1        0.0735
     35 C         142.0484  131.6020  155.6751 C.3     1  UNL1        0.0346
     36 C         142.6017  132.8712  156.2521 C.3     1  UNL1        0.0735
@<TRIPOS>BOND
     1     1     2    1
     2     2     3   ar
     3     3     4   ar
     4     4     5   ar
     5     5     6   ar
     6     6     7   ar
     7     7     8   ar
     8     8    13    1
     9    13    14   ar
    10    14    15   ar
    11    15    16   ar
    12    16    17   ar
    13    17    19    1
    14    19    20    1
    15    20    21    1
    16    21    22    1
    17    22    23    1
    18    23    24    1
    19    24    25    1
    20    25    26    1
    21    24    27    1
    22    17    18   ar
    23     8     9   ar
    24     9    10   ar
    25    28    10    1
    26    28    29    1
    27    29    30    1
    28    30    32    1
    29    32    33    1
    30    33    34    1
    31    34    35    1
    32    35    36    1
    33    30    31    1
    34     7     2   ar
    35    18    13   ar
    36    31    28    1
    37    10     6   ar
    38    36    33    1
    39    26    21    1
    40    27    21    1
    41     1    11    1
    42     1    12    1
@<TRIPOS>MOLECULE
*****
 36 42 0 0 0
SMALL
GASTEIGER

@<TRIPOS>ATOM
      1 N         140.6513  144.9716  161.9966 N.pl3   1  UNL1       -0.3425
      2 C         141.0229  144.8208  160.5512 C.ar    1  UNL1        0.1300
      3 N         140.1949  145.4840  159.4908 N.ar    1  UNL1       -0.2094
      4 C         140.5664  145.3332  158.0454 C.ar    1  UNL1        0.2014
      5 N         141.7660  144.5191  157.6604 N.ar    1  UNL1       -0.2065
      6 C         142.5940  143.8559  158.7208 C.ar    1  UNL1        0.1482
      7 C         142.2224  144.0067  160.1662 C.ar    1  UNL1        0.0668
      8 C         143.2210  143.2421  160.9837 C.ar    1  UNL1        0.0229
      9 C         144.2097  142.6187  160.0436 C.ar    1  UNL1        0.0771
     10 N         143.8222  142.9981  158.6450 N.ar    1  UNL1       -0.3133
     11 H         139.8640  145.5060  162.2493 H       1  UNL1        0.1437
     12 H         141.1948  144.5363  162.6926 H       1  UNL1        0.1437
     13 C         143.2293  143.1220  162.4789 C.ar    1  UNL1        0.0046
     14 C         144.1080  144.0197  163.2985 C.ar    1  UNL1        0.0003
     15 C         144.1163  143.8996  164.7937 C.ar    1  UNL1        0.0031
     16 C         143.2460  142.8817  165.4692 C.ar    1  UNL1        0.0369
     17 C         142.3672  141.9839  164.6496 C.ar    1  UNL1        0.1387
     18 C         142.3589  142.1041  163.1544 C.ar    1  UNL1        0.0369
     19 O         141.4969  140.9660  165.3250 O.3     1  UNL1       -0.4729
     20 C         140.0040  141.0662  165.2177 C.3     1  UNL1        0.2321
     21 C         139.3545  142.4037  165.0188 C.3     1  UNL1        0.1329
     22 C         139.5980  143.6333  165.8426 C.3     1  UNL1        0.0334
     23 C         138.7414  144.7358  165.2941 C.3     1  UNL1        0.0321
     24 C         137.9685  144.1875  164.1314 C.3     1  UNL1        0.1153
     25 C         137.7250  142.9578  163.3076 C.3     1  UNL1        0.0321
     26 C         138.5816  141.8554  163.8561 C.3     1  UNL1        0.0334
     27 O         138.3474  142.7462  163.9613 O.3     1  UNL1       -0.3574
     28 C         144.5373  142.5911  157.3909 C.3     1  UNL1        0.0870
     29 C         144.1615  142.4848  155.9425 C.3     1  UNL1        0.0240
     30 C         145.5485  142.0155  155.6171 C.3     1  UNL1        0.0197
     31 C         145.9243  142.1218  157.0654 C.3     1  UNL1        0.0240
     32 C         146.2637  141.6085  154.3629 C.3     1  UNL1        0.0722
     33 N         147.3905  142.4468  153.8364 N.3     1  UNL1       -0.2726
     34 C         148.8871  142.3819  153.9145 C.3     1  UNL1        0.0735
     35 C         148.9843  143.6324  153.0918 C.3     1  UNL1        0.0346
     36 C         147.4877  143.6973  153.0137 C.3     1  UNL1        0.0735
@<TRIPOS>BOND
     1     1     2    1
     2     2     3   ar
     3     3     4   ar
     4     4     5   ar
     5     5     6   ar
     6     6     7   ar
     7     7     8   ar
     8     8    13    1
     9    13    14   ar
    10    14    15   ar
    11    15    16   ar
    12    16    17   ar
    13    17    19    1
    14    19    20    1
    15    20    21    1
    16    21    22    1
    17    22    23    1
    18    23    24    1
    19    24    25    1
    20    25    26    1
    21    24    27    1
    22    17    18   ar
    23     8     9   ar
    24     9    10   ar
    25    28    10    1
    26    28    29    1
    27    29    30    1
    28    30    32    1
    29    32    33    1
    30    33    34    1
    31    34    35    1
    32    35    36    1
    33    30    31    1
    34     7     2   ar
    35    18    13   ar
    36    31    28    1
    37    10     6   ar
    38    36    33    1
    39    26    21    1
    40    27    21    1
    41     1    11    1
    42     1    12    1
@<TRIPOS>MOLECULE
*****
 36 42 0 0 0
SMALL
GASTEIGER

@<TRIPOS>ATOM
      1 N         140.4625  144.9391  164.2578 N.pl3   1  UNL1       -0.3425
      2 C         140.7170  144.9429  162.7795 C.ar    1  UNL1        0.1300
      3 N         139.9939  145.9162  161.8965 N.ar    1  UNL1       -0.2094
      4 C         140.2483  145.9200  160.4182 C.ar    1  UNL1        0.2014
      5 N         141.2259  144.9504  159.8230 N.ar    1  UNL1       -0.2065
      6 C         141.9490  143.9771  160.7060 C.ar    1  UNL1        0.1482
      7 C         141.6945  143.9733  162.1842 C.ar    1  UNL1        0.0668
      8 C         142.5497  142.9053  162.7990 C.ar    1  UNL1        0.0229
      9 C         143.3327  142.2490  161.7008 C.ar    1  UNL1        0.0771
     10 N         142.9614  142.9114  160.4072 N.ar    1  UNL1       -0.3133
     11 H         139.8209  145.5754  164.6484 H       1  UNL1        0.1437
     12 H         140.9371  144.3002  164.8373 H       1  UNL1        0.1437
     13 C         142.6111  142.5551  164.2563 C.ar    1  UNL1        0.0046
     14 C         143.6616  143.1709  165.1321 C.ar    1  UNL1        0.0003
     15 C         143.7230  142.8207  166.5893 C.ar    1  UNL1        0.0031
     16 C         142.7338  141.8546  167.1708 C.ar    1  UNL1        0.0369
     17 C         141.6833  141.2387  166.2951 C.ar    1  UNL1        0.1387
     18 C         141.6219  141.5889  164.8378 C.ar    1  UNL1        0.0369
     19 O         140.6941  140.2726  166.8765 O.3     1  UNL1       -0.4729
     20 C         139.3289  140.1405  166.2691 C.3     1  UNL1        0.2321
     21 C         139.1423  139.3492  165.0084 C.3     1  UNL1        0.1329
     22 C         139.7675  138.0210  164.7005 C.3     1  UNL1        0.0334
     23 C         139.3093  137.5982  163.3362 C.3     1  UNL1        0.0321
     24 C         138.4009  138.6651  162.8010 C.3     1  UNL1        0.1153
     25 C         137.7757  139.9934  163.1090 C.3     1  UNL1        0.0321
     26 C         138.2339  140.4162  164.4733 C.3     1  UNL1        0.0334
     27 O         138.2977  139.7473  163.8345 O.3     1  UNL1       -0.3574
     28 C         143.5068  142.5684  159.0526 C.3     1  UNL1        0.0870
     29 C         144.2073  141.3813  158.4608 C.3     1  UNL1        0.0240
     30 C         144.2781  142.0831  157.1370 C.3     1  UNL1        0.0197
     31 C         143.5777  143.2702  157.7289 C.3     1  UNL1        0.0240
     32 C         144.8235  141.7401  155.7824 C.3     1  UNL1        0.0722
     33 N         146.2918  141.8775  155.5083 N.3     1  UNL1       -0.2726
     34 C         147.1870  141.5690  154.3449 C.3     1  UNL1        0.0735
     35 C         148.3684  142.0717  155.1205 C.3     1  UNL1        0.0346
     36 C         147.4732  142.3802  156.2840 C.3     1  UNL1        0.0735
@<TRIPOS>BOND
     1     1     2    1
     2     2     3   ar
     3     3     4   ar
     4     4     5   ar
     5     5     6   ar
     6     6     7   ar
     7     7     8   ar
     8     8    13    1
     9    13    14   ar
    10    14    15   ar
    11    15    16   ar
    12    16    17   ar
    13    17    19    1
    14    19    20    1
    15    20    21    1
    16    21    22    1
    17    22    23    1
    18    23    24    1
    19    24    25    1
    20    25    26    1
    21    24    27    1
    22    17    18   ar
    23     8     9   ar
    24     9    10   ar
    25    28    10    1
    26    28    29    1
    27    29    30    1
    28    30    32    1
    29    32    33    1
    30    33    34    1
    31    34    35    1
    32    35    36    1
    33    30    31    1
    34     7     2   ar
    35    18    13   ar
    36    31    28    1
    37    10     6   ar
    38    36    33    1
    39    26    21    1
    40    27    21    1
    41     1    11    1
    42     1    12    1
@<TRIPOS>MOLECULE
*****
 36 42 0 0 0
SMALL
GASTEIGER

@<TRIPOS>ATOM
      1 N         143.4556  141.1294  158.1905 N.pl3   1  UNL1       -0.3425
      2 C         143.6544  141.4410  159.6443 C.ar    1  UNL1        0.1300
      3 N         144.4572  142.6409  160.0512 N.ar    1  UNL1       -0.2094
      4 C         144.6560  142.9525  161.5050 C.ar    1  UNL1        0.2014
      5 N         144.0519  142.0641  162.5518 N.ar    1  UNL1       -0.2065
      6 C         143.2491  140.8642  162.1449 C.ar    1  UNL1        0.1482
      7 C         143.0503  140.5526  160.6911 C.ar    1  UNL1        0.0668
      8 C         142.2164  139.3097  160.5933 C.ar    1  UNL1        0.0229
      9 C         141.8997  138.8530  161.9866 C.ar    1  UNL1        0.0771
     10 N         142.5380  139.8138  162.9455 N.ar    1  UNL1       -0.3133
     11 H         143.8521  141.7125  157.5035 H       1  UNL1        0.1437
     12 H         142.9287  140.3418  157.9235 H       1  UNL1        0.1437
     13 C         141.7763  138.6408  159.3249 C.ar    1  UNL1        0.0046
     14 C         140.4121  138.9165  158.7658 C.ar    1  UNL1        0.0003
     15 C         139.9721  138.2476  157.4973 C.ar    1  UNL1        0.0031
     16 C         140.8964  137.3029  156.7879 C.ar    1  UNL1        0.0369
     17 C         142.2607  137.0271  157.3470 C.ar    1  UNL1        0.1387
     18 C         142.7007  137.6960  158.6154 C.ar    1  UNL1        0.0369
     19 O         143.1850  136.0825  156.6377 O.3     1  UNL1       -0.4729
     20 C         143.3423  134.6749  157.1315 C.3     1  UNL1        0.2321
     21 C         142.6542  133.5486  156.4185 C.3     1  UNL1        0.1329
     22 C         141.5570  133.6862  155.4051 C.3     1  UNL1        0.0334
     23 C         141.1672  132.3098  154.9541 C.3     1  UNL1        0.0321
     24 C         142.0236  131.3214  155.6888 C.3     1  UNL1        0.1153
     25 C         143.1209  131.1838  156.7023 C.3     1  UNL1        0.0321
     26 C         143.5106  132.5603  157.1532 C.3     1  UNL1        0.0334
     27 O         142.9426  132.0871  156.5939 O.3     1  UNL1       -0.3574
     28 C         142.4760  139.7376  164.4423 C.3     1  UNL1        0.0870
     29 C         141.7169  138.9034  165.4313 C.3     1  UNL1        0.0240
     30 C         142.3883  139.6297  166.5591 C.3     1  UNL1        0.0197
     31 C         143.1473  140.4638  165.5700 C.3     1  UNL1        0.0240
     32 C         142.3264  139.5535  168.0559 C.3     1  UNL1        0.0722
     33 N         141.0608  139.9184  168.7737 N.3     1  UNL1       -0.2726
     34 C         139.6960  140.3755  168.3514 C.3     1  UNL1        0.0735
     35 C         139.2710  140.4345  169.7887 C.3     1  UNL1        0.0346
     36 C         140.6359  139.9775  170.2110 C.3     1  UNL1        0.0735
@<TRIPOS>BOND
     1     1     2    1
     2     2     3   ar
     3     3     4   ar
     4     4     5   ar
     5     5     6   ar
     6     6     7   ar
     7     7     8   ar
     8     8    13    1
     9    13    14   ar
    10    14    15   ar
    11    15    16   ar
    12    16    17   ar
    13    17    19    1
    14    19    20    1
    15    20    21    1
    16    21    22    1
    17    22    23    1
    18    23    24    1
    19    24    25    1
    20    25    26    1
    21    24    27    1
    22    17    18   ar
    23     8     9   ar
    24     9    10   ar
    25    28    10    1
    26    28    29    1
    27    29    30    1
    28    30    32    1
    29    32    33    1
    30    33    34    1
    31    34    35    1
    32    35    36    1
    33    30    31    1
    34     7     2   ar
    35    18    13   ar
    36    31    28    1
    37    10     6   ar
    38    36    33    1
    39    26    21    1
    40    27    21    1
    41     1    11    1
    42     1    12    1
