@<TRIPOS>MOLECULE
*****
 39 43 0 0 0
SMALL
GASTEIGER

@<TRIPOS>ATOM
      1 N         141.0051  138.6739  162.7817 N.ar    1  UNL1       -0.3063
      2 C         139.9604  139.5658  163.3842 C.ar    1  UNL1        0.1240
      3 C         139.4555  140.4808  162.3081 C.ar    1  UNL1        0.1156
      4 C         140.1881  140.1542  161.0406 C.ar    1  UNL1        0.0966
      5 C         141.1458  139.0375  161.3333 C.ar    1  UNL1        0.1349
      6 C         142.0223  138.4960  160.2431 C.ar    1  UNL1        0.2819
      7 O         142.9800  137.3793  160.5357 O.2     1  UNL1       -0.2652
      8 N         141.9410  139.0713  158.8602 N.ar    1  UNL1       -0.2416
      9 C         140.9833  140.1880  158.5675 C.ar    1  UNL1        0.3342
     10 O         140.9020  140.7633  157.1846 O.2     1  UNL1       -0.2462
     11 N         140.1068  140.7295  159.6577 N.ar    1  UNL1       -0.2770
     12 C         139.1491  141.8462  159.3650 C.3     1  UNL1        0.1351
     13 N         139.5013  139.5463  164.8121 N.pl3   1  UNL1       -0.2926
     14 C         140.0676  140.5272  165.7955 C.3     1  UNL1        0.0922
     15 C         139.6084  140.5077  167.2233 C.3     1  UNL1        0.0229
     16 C         138.5830  139.5073  167.6678 C.3     1  UNL1        0.0190
     17 C         138.0167  138.5264  166.6844 C.3     1  UNL1        0.0709
     18 N         136.9912  137.5259  167.1289 N.3     1  UNL1       -0.3208
     19 C         138.4758  138.5459  165.2566 C.3     1  UNL1        0.1075
     20 H         136.7984  137.6550  168.1222 H       1  UNL1        0.1189
     21 H         137.3458  136.5826  166.9712 H       1  UNL1        0.1189
     22 C         138.4027  141.5368  162.4710 C.1     1  UNL1        0.1047
     23 N         137.3500  142.5929  162.6339 N.1     1  UNL1       -0.1907
     24 C         141.7741  137.6058  163.5013 C.3     1  UNL1        0.1332
     25 C         143.3500  138.7265  166.9669 C.3     1  UNL1        0.0261
     26 C         143.1082  138.6114  165.4910 C.2     1  UNL1       -0.0460
     27 C         143.9587  139.3867  164.5290 C.3     1  UNL1        0.0261
     28 C         142.0160  137.7209  164.9772 C.2     1  UNL1       -0.0102
     29 C         142.8175  138.5298  157.7699 C.3     1  UNL1        0.1609
     30 C         142.4950  137.2100  157.1342 C.ar    1  UNL1        0.1011
     31 C         141.3695  137.1077  156.1479 C.ar    1  UNL1        0.1154
     32 N         141.0469  135.7880  155.5122 N.ar    1  UNL1       -0.2410
     33 C         141.8498  134.5704  155.8628 C.ar    1  UNL1        0.0989
     34 C         141.5272  133.2506  155.2272 C.ar    1  UNL1        0.0206
     35 C         142.3301  132.0331  155.5778 C.ar    1  UNL1        0.0016
     36 C         143.4555  132.1353  156.5642 C.ar    1  UNL1        0.0016
     37 C         143.7781  133.4551  157.1999 C.ar    1  UNL1        0.0206
     38 C         142.9753  134.6726  156.8492 C.ar    1  UNL1        0.0986
     39 N         143.2978  135.9924  157.4849 N.ar    1  UNL1       -0.2446
@<TRIPOS>BOND
     1    25    26    1
     2    26    27    1
     3    26    28    2
     4    28    24    1
     5    24     1    1
     6     1     2   ar
     7     2    13    1
     8    13    14    1
     9    14    15    1
    10    15    16    1
    11    16    17    1
    12    17    18    1
    13    17    19    1
    14     2     3   ar
    15     3    22    1
    16    22    23    3
    17     3     4   ar
    18     4     5   ar
    19     5     6   ar
    20     6     7    2
    21     6     8   ar
    22     8    29    1
    23    29    30    1
    24    30    31   ar
    25    31    32   ar
    26    32    33   ar
    27    33    34   ar
    28    34    35   ar
    29    35    36   ar
    30    36    37   ar
    31    37    38   ar
    32    38    39   ar
    33     8     9   ar
    34     9    10    2
    35     9    11   ar
    36    11    12    1
    37     5     1   ar
    38    39    30   ar
    39    19    13    1
    40    11     4   ar
    41    38    33   ar
    42    18    20    1
    43    18    21    1
@<TRIPOS>MOLECULE
*****
 39 43 0 0 0
SMALL
GASTEIGER

@<TRIPOS>ATOM
      1 N         140.2869  142.1006  164.9348 N.ar    1  UNL1       -0.3063
      2 C         141.4266  142.4070  165.8606 C.ar    1  UNL1        0.1240
      3 C         142.5467  142.9793  165.0434 C.ar    1  UNL1        0.1156
      4 C         142.0992  143.0265  163.6125 C.ar    1  UNL1        0.0966
      5 C         140.7026  142.4835  163.5454 C.ar    1  UNL1        0.1349
      6 C         139.9899  142.4077  162.2277 C.ar    1  UNL1        0.2819
      7 O         138.5933  141.8647  162.1606 O.2     1  UNL1       -0.2652
      8 N         140.6737  142.8751  160.9772 N.ar    1  UNL1       -0.2416
      9 C         142.0704  143.4182  161.0442 C.ar    1  UNL1        0.3342
     10 O         142.7542  143.8856  159.7937 O.2     1  UNL1       -0.2462
     11 N         142.7831  143.4939  162.3619 N.ar    1  UNL1       -0.2770
     12 C         144.1797  144.0370  162.4291 C.3     1  UNL1        0.1351
     13 N         141.4433  142.1809  167.3435 N.pl3   1  UNL1       -0.2926
     14 C         142.3132  141.1083  167.9288 C.3     1  UNL1        0.0922
     15 C         142.3299  140.8822  169.4115 C.3     1  UNL1        0.0229
     16 C         141.4767  141.7288  170.3089 C.3     1  UNL1        0.0190
     17 C         140.6067  142.8014  169.7236 C.3     1  UNL1        0.0709
     18 N         139.7535  143.6479  170.6210 N.3     1  UNL1       -0.3208
     19 C         140.5901  143.0275  168.2409 C.3     1  UNL1        0.1075
     20 H         139.8883  143.3591  171.5899 H       1  UNL1        0.1189
     21 H         138.7728  143.5330  170.3652 H       1  UNL1        0.1189
     22 C         143.8801  143.4259  165.5654 C.1     1  UNL1        0.1047
     23 N         145.2136  143.8725  166.0875 N.1     1  UNL1       -0.1907
     24 C         138.9638  141.5142  165.3291 C.3     1  UNL1        0.1332
     25 C         138.3724  137.6414  165.9630 C.3     1  UNL1        0.0261
     26 C         138.6555  139.0923  166.2175 C.2     1  UNL1       -0.0460
     27 C         138.9135  139.5721  167.6152 C.3     1  UNL1        0.0261
     28 C         138.6807  140.0633  165.0746 C.2     1  UNL1       -0.0102
     29 C         139.9610  142.7994  159.6595 C.3     1  UNL1        0.1609
     30 C         139.9228  141.5060  158.9007 C.ar    1  UNL1        0.1011
     31 C         138.6300  141.0154  158.3193 C.ar    1  UNL1        0.1154
     32 N         138.5918  139.7221  157.5605 N.ar    1  UNL1       -0.2410
     33 C         139.8464  138.9192  157.3831 C.ar    1  UNL1        0.0989
     34 C         139.8082  137.6259  156.6243 C.ar    1  UNL1        0.0206
     35 C         141.0628  136.8231  156.4470 C.ar    1  UNL1        0.0016
     36 C         142.3556  137.3136  157.0284 C.ar    1  UNL1        0.0016
     37 C         142.3938  138.6070  157.7872 C.ar    1  UNL1        0.0206
     38 C         141.1392  139.4098  157.9645 C.ar    1  UNL1        0.0986
     39 N         141.1774  140.7032  158.7233 N.ar    1  UNL1       -0.2446
@<TRIPOS>BOND
     1    25    26    1
     2    26    27    1
     3    26    28    2
     4    28    24    1
     5    24     1    1
     6     1     2   ar
     7     2    13    1
     8    13    14    1
     9    14    15    1
    10    15    16    1
    11    16    17    1
    12    17    18    1
    13    17    19    1
    14     2     3   ar
    15     3    22    1
    16    22    23    3
    17     3     4   ar
    18     4     5   ar
    19     5     6   ar
    20     6     7    2
    21     6     8   ar
    22     8    29    1
    23    29    30    1
    24    30    31   ar
    25    31    32   ar
    26    32    33   ar
    27    33    34   ar
    28    34    35   ar
    29    35    36   ar
    30    36    37   ar
    31    37    38   ar
    32    38    39   ar
    33     8     9   ar
    34     9    10    2
    35     9    11   ar
    36    11    12    1
    37     5     1   ar
    38    39    30   ar
    39    19    13    1
    40    11     4   ar
    41    38    33   ar
    42    18    20    1
    43    18    21    1
@<TRIPOS>MOLECULE
*****
 39 43 0 0 0
SMALL
GASTEIGER

@<TRIPOS>ATOM
      1 N         142.2001  139.8712  161.2214 N.ar    1  UNL1       -0.3063
      2 C         141.1724  140.4797  162.1289 C.ar    1  UNL1        0.1240
      3 C         139.8705  140.5321  161.3857 C.ar    1  UNL1        0.1156
      4 C         140.0937  139.9561  160.0188 C.ar    1  UNL1        0.0966
      5 C         141.5334  139.5476  159.9172 C.ar    1  UNL1        0.1349
      6 C         142.0513  138.9338  158.6503 C.ar    1  UNL1        0.2819
      7 O         143.4910  138.5253  158.5488 O.2     1  UNL1       -0.2652
      8 N         141.1294  138.7284  157.4850 N.ar    1  UNL1       -0.2416
      9 C         139.6896  139.1368  157.5866 C.ar    1  UNL1        0.3342
     10 O         138.7678  138.9315  156.4213 O.2     1  UNL1       -0.2462
     11 N         139.1718  139.7507  158.8535 N.ar    1  UNL1       -0.2770
     12 C         137.7321  140.1591  158.9550 C.3     1  UNL1        0.1351
     13 N         141.4057  140.9527  163.5332 N.pl3   1  UNL1       -0.2926
     14 C         141.7886  142.3800  163.7900 C.3     1  UNL1        0.0922
     15 C         142.0218  142.8530  165.1942 C.3     1  UNL1        0.0229
     16 C         141.8720  141.8985  166.3416 C.3     1  UNL1        0.0190
     17 C         141.4891  140.4712  166.0849 C.3     1  UNL1        0.0709
     18 N         141.3394  139.5167  167.2323 N.3     1  UNL1       -0.3208
     19 C         141.2559  139.9982  164.6806 C.3     1  UNL1        0.1075
     20 H         141.5335  140.0038  168.1072 H       1  UNL1        0.1189
     21 H         141.9962  138.7445  167.1201 H       1  UNL1        0.1189
     22 C         138.5734  141.0667  161.9162 C.1     1  UNL1        0.1047
     23 N         137.2761  141.6014  162.4467 N.1     1  UNL1       -0.1907
     24 C         143.6414  139.6289  161.5587 C.3     1  UNL1        0.1332
     25 C         145.9295  141.8230  163.9462 C.3     1  UNL1        0.0261
     26 C         145.0774  140.6960  163.4426 C.2     1  UNL1       -0.0460
     27 C         144.8092  139.5088  164.3195 C.3     1  UNL1        0.0261
     28 C         144.4936  140.7560  162.0623 C.2     1  UNL1       -0.0102
     29 C         141.6473  138.1146  156.2181 C.3     1  UNL1        0.1609
     30 C         141.7828  136.6247  156.1074 C.ar    1  UNL1        0.1011
     31 C         140.8743  135.8548  155.1954 C.ar    1  UNL1        0.1154
     32 N         141.0097  134.3651  155.0846 N.ar    1  UNL1       -0.2410
     33 C         142.0538  133.6452  155.8858 C.ar    1  UNL1        0.0989
     34 C         142.1892  132.1555  155.7750 C.ar    1  UNL1        0.0206
     35 C         143.2332  131.4357  156.5762 C.ar    1  UNL1        0.0016
     36 C         144.1417  132.2057  157.4882 C.ar    1  UNL1        0.0016
     37 C         144.0063  133.6954  157.5990 C.ar    1  UNL1        0.0206
     38 C         142.9623  134.4152  156.7978 C.ar    1  UNL1        0.0986
     39 N         142.8268  135.9050  156.9086 N.ar    1  UNL1       -0.2446
@<TRIPOS>BOND
     1    25    26    1
     2    26    27    1
     3    26    28    2
     4    28    24    1
     5    24     1    1
     6     1     2   ar
     7     2    13    1
     8    13    14    1
     9    14    15    1
    10    15    16    1
    11    16    17    1
    12    17    18    1
    13    17    19    1
    14     2     3   ar
    15     3    22    1
    16    22    23    3
    17     3     4   ar
    18     4     5   ar
    19     5     6   ar
    20     6     7    2
    21     6     8   ar
    22     8    29    1
    23    29    30    1
    24    30    31   ar
    25    31    32   ar
    26    32    33   ar
    27    33    34   ar
    28    34    35   ar
    29    35    36   ar
    30    36    37   ar
    31    37    38   ar
    32    38    39   ar
    33     8     9   ar
    34     9    10    2
    35     9    11   ar
    36    11    12    1
    37     5     1   ar
    38    39    30   ar
    39    19    13    1
    40    11     4   ar
    41    38    33   ar
    42    18    20    1
    43    18    21    1
@<TRIPOS>MOLECULE
*****
 39 43 0 0 0
SMALL
GASTEIGER

@<TRIPOS>ATOM
      1 N         141.8197  142.2903  165.7032 N.ar    1  UNL1       -0.3063
      2 C         141.0509  141.2197  166.4192 C.ar    1  UNL1        0.1240
      3 C         139.7843  140.9692  165.6557 C.ar    1  UNL1        0.1156
      4 C         139.7703  141.8851  164.4679 C.ar    1  UNL1        0.0966
      5 C         141.0282  142.7016  164.4972 C.ar    1  UNL1        0.1349
      6 C         141.2905  143.7140  163.4220 C.ar    1  UNL1        0.2819
      7 O         142.5484  144.5305  163.4513 O.2     1  UNL1       -0.2652
      8 N         140.2948  143.9100  162.3174 N.ar    1  UNL1       -0.2416
      9 C         139.0368  143.0934  162.2880 C.ar    1  UNL1        0.3342
     10 O         138.0411  143.2894  161.1834 O.2     1  UNL1       -0.2462
     11 N         138.7745  142.0810  163.3632 N.ar    1  UNL1       -0.2770
     12 C         137.5166  141.2645  163.3339 C.3     1  UNL1        0.1351
     13 N         141.4744  140.5220  167.6778 N.pl3   1  UNL1       -0.2926
     14 C         142.5142  139.4423  167.6233 C.3     1  UNL1        0.0922
     15 C         142.9376  138.7447  168.8818 C.3     1  UNL1        0.0229
     16 C         142.3212  139.1267  170.1949 C.3     1  UNL1        0.0190
     17 C         141.2814  140.2064  170.2494 C.3     1  UNL1        0.0709
     18 N         140.6650  140.5885  171.5624 N.3     1  UNL1       -0.3208
     19 C         140.8580  140.9041  168.9909 C.3     1  UNL1        0.1075
     20 H         141.0669  140.0172  172.3057 H       1  UNL1        0.1189
     21 H         139.6574  140.4348  171.5226 H       1  UNL1        0.1189
     22 C         138.7187  139.9771  166.0167 C.1     1  UNL1        0.1047
     23 N         137.6531  138.9850  166.3778 N.1     1  UNL1       -0.1907
     24 C         143.1469  142.8513  166.1200 C.3     1  UNL1        0.1332
     25 C         145.8553  141.7718  163.4275 C.3     1  UNL1        0.0261
     26 C         144.7303  141.6932  164.4165 C.2     1  UNL1       -0.0460
     27 C         144.0637  140.3778  164.6912 C.3     1  UNL1        0.0261
     28 C         144.2719  142.9299  165.1309 C.2     1  UNL1       -0.0102
     29 C         140.5570  144.9224  161.2421 C.3     1  UNL1        0.1609
     30 C         141.1974  144.4990  159.9534 C.ar    1  UNL1        0.1011
     31 C         140.5158  144.7844  158.6480 C.ar    1  UNL1        0.1154
     32 N         141.1561  144.3610  157.3593 N.ar    1  UNL1       -0.2410
     33 C         142.4781  143.6523  157.3760 C.ar    1  UNL1        0.0989
     34 C         143.1184  143.2290  156.0873 C.ar    1  UNL1        0.0206
     35 C         144.4403  142.5203  156.1040 C.ar    1  UNL1        0.0016
     36 C         145.1219  142.2349  157.4094 C.ar    1  UNL1        0.0016
     37 C         144.4816  142.6583  158.6980 C.ar    1  UNL1        0.0206
     38 C         143.1597  143.3670  158.6813 C.ar    1  UNL1        0.0986
     39 N         142.5193  143.7903  159.9701 N.ar    1  UNL1       -0.2446
@<TRIPOS>BOND
     1    25    26    1
     2    26    27    1
     3    26    28    2
     4    28    24    1
     5    24     1    1
     6     1     2   ar
     7     2    13    1
     8    13    14    1
     9    14    15    1
    10    15    16    1
    11    16    17    1
    12    17    18    1
    13    17    19    1
    14     2     3   ar
    15     3    22    1
    16    22    23    3
    17     3     4   ar
    18     4     5   ar
    19     5     6   ar
    20     6     7    2
    21     6     8   ar
    22     8    29    1
    23    29    30    1
    24    30    31   ar
    25    31    32   ar
    26    32    33   ar
    27    33    34   ar
    28    34    35   ar
    29    35    36   ar
    30    36    37   ar
    31    37    38   ar
    32    38    39   ar
    33     8     9   ar
    34     9    10    2
    35     9    11   ar
    36    11    12    1
    37     5     1   ar
    38    39    30   ar
    39    19    13    1
    40    11     4   ar
    41    38    33   ar
    42    18    20    1
    43    18    21    1
@<TRIPOS>MOLECULE
*****
 39 43 0 0 0
SMALL
GASTEIGER

@<TRIPOS>ATOM
      1 N         142.1776  140.2081  164.9615 N.ar    1  UNL1       -0.3063
      2 C         142.3760  141.6168  165.4372 C.ar    1  UNL1        0.1240
      3 C         142.9513  142.4123  164.3031 C.ar    1  UNL1        0.1156
      4 C         143.1084  141.4952  163.1265 C.ar    1  UNL1        0.0966
      5 C         142.6303  140.1330  163.5334 C.ar    1  UNL1        0.1349
      6 C         142.6688  139.0002  162.5509 C.ar    1  UNL1        0.2819
      7 O         142.1906  137.6379  162.9578 O.2     1  UNL1       -0.2652
      8 N         143.1856  139.2296  161.1616 N.ar    1  UNL1       -0.2416
      9 C         143.6638  140.5919  160.7547 C.ar    1  UNL1        0.3342
     10 O         144.1805  140.8213  159.3653 O.2     1  UNL1       -0.2462
     11 N         143.6252  141.7247  161.7371 N.ar    1  UNL1       -0.2770
     12 C         144.1034  143.0870  161.3302 C.3     1  UNL1        0.1351
     13 N         142.0554  142.1384  166.8066 N.pl3   1  UNL1       -0.2926
     14 C         140.6744  142.6358  167.1153 C.3     1  UNL1        0.0922
     15 C         140.3538  143.1573  168.4847 C.3     1  UNL1        0.0229
     16 C         141.4143  143.1815  169.5453 C.3     1  UNL1        0.0190
     17 C         142.7953  142.6841  169.2365 C.3     1  UNL1        0.0709
     18 N         143.8557  142.7083  170.2971 N.3     1  UNL1       -0.3208
     19 C         143.1158  142.1626  167.8672 C.3     1  UNL1        0.1075
     20 H         143.4662  143.0910  171.1587 H       1  UNL1        0.1189
     21 H         144.6333  143.2912  169.9872 H       1  UNL1        0.1189
     22 C         143.3070  143.8690  164.3392 C.1     1  UNL1        0.1047
     23 N         143.6627  145.3259  164.3754 N.1     1  UNL1       -0.1907
     24 C         141.6237  139.0737  165.7716 C.3     1  UNL1        0.1332
     25 C         137.7833  138.7047  166.7019 C.3     1  UNL1        0.0261
     26 C         139.0888  138.5441  165.9809 C.2     1  UNL1       -0.0460
     27 C         139.1647  137.6931  164.7479 C.3     1  UNL1        0.0261
     28 C         140.3182  139.2343  166.4927 C.2     1  UNL1       -0.0102
     29 C         143.2241  138.0968  160.1792 C.3     1  UNL1        0.1609
     30 C         142.1893  138.0071  159.0969 C.ar    1  UNL1        0.1011
     31 C         140.8406  138.6330  159.2951 C.ar    1  UNL1        0.1154
     32 N         139.8058  138.5433  158.2129 N.ar    1  UNL1       -0.2410
     33 C         140.1197  137.8277  156.9325 C.ar    1  UNL1        0.0989
     34 C         139.0849  137.7380  155.8503 C.ar    1  UNL1        0.0206
     35 C         139.3988  137.0224  154.5699 C.ar    1  UNL1        0.0016
     36 C         140.7475  136.3965  154.3718 C.ar    1  UNL1        0.0016
     37 C         141.7823  136.4862  155.4539 C.ar    1  UNL1        0.0206
     38 C         141.4684  137.2018  156.7343 C.ar    1  UNL1        0.0986
     39 N         142.5032  137.2915  157.8165 N.ar    1  UNL1       -0.2446
@<TRIPOS>BOND
     1    25    26    1
     2    26    27    1
     3    26    28    2
     4    28    24    1
     5    24     1    1
     6     1     2   ar
     7     2    13    1
     8    13    14    1
     9    14    15    1
    10    15    16    1
    11    16    17    1
    12    17    18    1
    13    17    19    1
    14     2     3   ar
    15     3    22    1
    16    22    23    3
    17     3     4   ar
    18     4     5   ar
    19     5     6   ar
    20     6     7    2
    21     6     8   ar
    22     8    29    1
    23    29    30    1
    24    30    31   ar
    25    31    32   ar
    26    32    33   ar
    27    33    34   ar
    28    34    35   ar
    29    35    36   ar
    30    36    37   ar
    31    37    38   ar
    32    38    39   ar
    33     8     9   ar
    34     9    10    2
    35     9    11   ar
    36    11    12    1
    37     5     1   ar
    38    39    30   ar
    39    19    13    1
    40    11     4   ar
    41    38    33   ar
    42    18    20    1
    43    18    21    1
@<TRIPOS>MOLECULE
*****
 39 43 0 0 0
SMALL
GASTEIGER

@<TRIPOS>ATOM
      1 N         140.7344  138.7199  162.6309 N.ar    1  UNL1       -0.3063
      2 C         139.7956  139.6560  163.3324 C.ar    1  UNL1        0.1240
      3 C         139.2454  140.6101  162.3140 C.ar    1  UNL1        0.1156
      4 C         139.8443  140.2636  160.9832 C.ar    1  UNL1        0.0966
      5 C         140.7645  139.0953  161.1790 C.ar    1  UNL1        0.1349
      6 C         141.5110  138.5244  160.0099 C.ar    1  UNL1        0.2819
      7 O         142.4313  137.3562  160.2057 O.2     1  UNL1       -0.2652
      8 N         141.3373  139.1217  158.6450 N.ar    1  UNL1       -0.2416
      9 C         140.4170  140.2900  158.4491 C.ar    1  UNL1        0.3342
     10 O         140.2433  140.8873  157.0842 O.2     1  UNL1       -0.2462
     11 N         139.6705  140.8609  159.6182 N.ar    1  UNL1       -0.2770
     12 C         138.7503  142.0291  159.4224 C.3     1  UNL1        0.1351
     13 N         139.4649  139.6408  164.7955 N.pl3   1  UNL1       -0.2926
     14 C         140.1804  140.5649  165.7357 C.3     1  UNL1        0.0922
     15 C         139.8496  140.5496  167.1987 C.3     1  UNL1        0.0229
     16 C         138.8034  139.6103  167.7214 C.3     1  UNL1        0.0190
     17 C         138.0880  138.6863  166.7811 C.3     1  UNL1        0.0709
     18 N         137.0418  137.7470  167.3038 N.3     1  UNL1       -0.3208
     19 C         138.4187  138.7015  165.3181 C.3     1  UNL1        0.1075
     20 H         136.9470  137.8705  168.3119 H       1  UNL1        0.1189
     21 H         137.3173  136.7856  167.1035 H       1  UNL1        0.1189
     22 C         138.2681  141.7165  162.5798 C.1     1  UNL1        0.1047
     23 N         137.2906  142.8229  162.8456 N.1     1  UNL1       -0.1907
     24 C         141.5075  137.6041  163.2692 C.3     1  UNL1        0.1332
     25 C         143.3937  138.5202  166.6386 C.3     1  UNL1        0.0261
     26 C         143.0480  138.4548  165.1805 C.2     1  UNL1       -0.0460
     27 C         143.8975  139.1747  164.1754 C.3     1  UNL1        0.0261
     28 C         141.8531  137.6695  164.7274 C.2     1  UNL1       -0.0102
     29 C         142.0838  138.5508  157.4759 C.3     1  UNL1        0.1609
     30 C         143.3040  139.2485  156.9520 C.ar    1  UNL1        0.1011
     31 C         143.9563  138.7713  155.6883 C.ar    1  UNL1        0.1154
     32 N         145.1764  139.4689  155.1645 N.ar    1  UNL1       -0.2410
     33 C         145.7444  140.6438  155.9043 C.ar    1  UNL1        0.0989
     34 C         146.9646  141.3414  155.3804 C.ar    1  UNL1        0.0206
     35 C         147.5325  142.5161  156.1202 C.ar    1  UNL1        0.0016
     36 C         146.8803  142.9933  157.3839 C.ar    1  UNL1        0.0016
     37 C         145.6601  142.2956  157.9078 C.ar    1  UNL1        0.0206
     38 C         145.0922  141.1209  157.1680 C.ar    1  UNL1        0.0986
     39 N         143.8719  140.4232  157.6918 N.ar    1  UNL1       -0.2446
@<TRIPOS>BOND
     1    25    26    1
     2    26    27    1
     3    26    28    2
     4    28    24    1
     5    24     1    1
     6     1     2   ar
     7     2    13    1
     8    13    14    1
     9    14    15    1
    10    15    16    1
    11    16    17    1
    12    17    18    1
    13    17    19    1
    14     2     3   ar
    15     3    22    1
    16    22    23    3
    17     3     4   ar
    18     4     5   ar
    19     5     6   ar
    20     6     7    2
    21     6     8   ar
    22     8    29    1
    23    29    30    1
    24    30    31   ar
    25    31    32   ar
    26    32    33   ar
    27    33    34   ar
    28    34    35   ar
    29    35    36   ar
    30    36    37   ar
    31    37    38   ar
    32    38    39   ar
    33     8     9   ar
    34     9    10    2
    35     9    11   ar
    36    11    12    1
    37     5     1   ar
    38    39    30   ar
    39    19    13    1
    40    11     4   ar
    41    38    33   ar
    42    18    20    1
    43    18    21    1
@<TRIPOS>MOLECULE
*****
 39 43 0 0 0
SMALL
GASTEIGER

@<TRIPOS>ATOM
      1 N         140.2483  140.4393  164.6378 N.ar    1  UNL1       -0.3063
      2 C         141.6624  140.5286  165.1300 C.ar    1  UNL1        0.1240
      3 C         142.5752  140.3272  163.9569 C.ar    1  UNL1        0.1156
      4 C         141.7252  140.1133  162.7396 C.ar    1  UNL1        0.0966
      5 C         140.2871  140.1826  163.1604 C.ar    1  UNL1        0.1349
      6 C         139.1988  140.0030  162.1439 C.ar    1  UNL1        0.2819
      7 O         137.7607  140.0723  162.5647 O.2     1  UNL1       -0.2652
      8 N         139.5485  139.7541  160.7067 N.ar    1  UNL1       -0.2416
      9 C         140.9866  139.6848  160.2859 C.ar    1  UNL1        0.3342
     10 O         141.3363  139.4359  158.8486 O.2     1  UNL1       -0.2462
     11 N         142.0750  139.8644  161.3023 N.ar    1  UNL1       -0.2770
     12 C         143.5130  139.7951  160.8816 C.3     1  UNL1        0.1351
     13 N         142.0889  140.7760  166.5467 N.pl3   1  UNL1       -0.2926
     14 C         142.3495  142.1760  167.0179 C.3     1  UNL1        0.0922
     15 C         142.7760  142.4234  168.4345 C.3     1  UNL1        0.0229
     16 C         142.9418  141.2707  169.3800 C.3     1  UNL1        0.0190
     17 C         142.6812  139.8707  168.9088 C.3     1  UNL1        0.0709
     18 N         142.8470  138.7181  169.8543 N.3     1  UNL1       -0.3208
     19 C         142.2547  139.6234  167.4922 C.3     1  UNL1        0.1075
     20 H         143.1389  139.0666  170.7674 H       1  UNL1        0.1189
     21 H         143.5553  138.0800  169.4916 H       1  UNL1        0.1189
     22 C         144.0747  140.3377  163.9944 C.1     1  UNL1        0.1047
     23 N         145.5742  140.3482  164.0319 N.1     1  UNL1       -0.1907
     24 C         139.0124  140.5816  165.4757 C.3     1  UNL1        0.1332
     25 C         137.1157  137.6995  167.4367 C.3     1  UNL1        0.0261
     26 C         137.9761  138.8966  167.1599 C.2     1  UNL1       -0.0460
     27 C         138.6606  139.6057  168.2907 C.3     1  UNL1        0.0261
     28 C         138.1520  139.3845  165.7525 C.2     1  UNL1       -0.0102
     29 C         138.4601  139.5745  159.6902 C.3     1  UNL1        0.1609
     30 C         138.1754  140.6613  158.6963 C.ar    1  UNL1        0.1011
     31 C         138.5407  142.0814  159.0125 C.ar    1  UNL1        0.1154
     32 N         138.2560  143.1682  158.0187 N.ar    1  UNL1       -0.2410
     33 C         137.6060  142.8349  156.7085 C.ar    1  UNL1        0.0989
     34 C         137.3213  143.9217  155.7146 C.ar    1  UNL1        0.0206
     35 C         136.6714  143.5884  154.4045 C.ar    1  UNL1        0.0016
     36 C         136.3061  142.1684  154.0883 C.ar    1  UNL1        0.0016
     37 C         136.5908  141.0816  155.0821 C.ar    1  UNL1        0.0206
     38 C         137.2407  141.4149  156.3922 C.ar    1  UNL1        0.0986
     39 N         137.5254  140.3281  157.3862 N.ar    1  UNL1       -0.2446
@<TRIPOS>BOND
     1    25    26    1
     2    26    27    1
     3    26    28    2
     4    28    24    1
     5    24     1    1
     6     1     2   ar
     7     2    13    1
     8    13    14    1
     9    14    15    1
    10    15    16    1
    11    16    17    1
    12    17    18    1
    13    17    19    1
    14     2     3   ar
    15     3    22    1
    16    22    23    3
    17     3     4   ar
    18     4     5   ar
    19     5     6   ar
    20     6     7    2
    21     6     8   ar
    22     8    29    1
    23    29    30    1
    24    30    31   ar
    25    31    32   ar
    26    32    33   ar
    27    33    34   ar
    28    34    35   ar
    29    35    36   ar
    30    36    37   ar
    31    37    38   ar
    32    38    39   ar
    33     8     9   ar
    34     9    10    2
    35     9    11   ar
    36    11    12    1
    37     5     1   ar
    38    39    30   ar
    39    19    13    1
    40    11     4   ar
    41    38    33   ar
    42    18    20    1
    43    18    21    1
@<TRIPOS>MOLECULE
*****
 39 43 0 0 0
SMALL
GASTEIGER

@<TRIPOS>ATOM
      1 N         139.2854  142.0021  160.9165 N.ar    1  UNL1       -0.3063
      2 C         140.2052  142.0663  159.7334 C.ar    1  UNL1        0.1240
      3 C         141.0571  140.8318  159.7411 C.ar    1  UNL1        0.1156
      4 C         140.6638  140.0046  160.9289 C.ar    1  UNL1        0.0966
      5 C         139.5688  140.7278  161.6553 C.ar    1  UNL1        0.1349
      6 C         138.9712  140.1326  162.8958 C.ar    1  UNL1        0.2819
      7 O         137.8762  140.8559  163.6223 O.2     1  UNL1       -0.2652
      8 N         139.4687  138.8142  163.4098 N.ar    1  UNL1       -0.2416
      9 C         140.5638  138.0909  162.6833 C.ar    1  UNL1        0.3342
     10 O         141.0612  136.7725  163.1973 O.2     1  UNL1       -0.2462
     11 N         141.1613  138.6861  161.4428 N.ar    1  UNL1       -0.2770
     12 C         142.2563  137.9628  160.7164 C.3     1  UNL1        0.1351
     13 N         140.2630  143.1712  158.7204 N.pl3   1  UNL1       -0.2926
     14 C         139.2227  143.2563  157.6432 C.3     1  UNL1        0.0922
     15 C         139.2805  144.3611  156.6303 C.3     1  UNL1        0.0229
     16 C         140.3787  145.3808  156.6947 C.3     1  UNL1        0.0190
     17 C         141.4190  145.2958  157.7719 C.3     1  UNL1        0.0709
     18 N         142.5171  146.3156  157.8362 N.3     1  UNL1       -0.3208
     19 C         141.3611  144.1910  158.7848 C.3     1  UNL1        0.1075
     20 H         142.4024  146.9871  157.0772 H       1  UNL1        0.1189
     21 H         143.4197  145.8495  157.7443 H       1  UNL1        0.1189
     22 C         142.1164  140.4853  158.7371 C.1     1  UNL1        0.1047
     23 N         143.1758  140.1388  157.7332 N.1     1  UNL1       -0.1907
     24 C         138.2618  143.0314  161.2944 C.3     1  UNL1        0.1332
     25 C         138.9364  144.9275  164.7149 C.3     1  UNL1        0.0261
     26 C         139.0694  144.4915  163.2858 C.2     1  UNL1       -0.0460
     27 C         140.1431  145.0798  162.4191 C.3     1  UNL1        0.0261
     28 C         138.1288  143.4673  162.7235 C.2     1  UNL1       -0.0102
     29 C         138.8712  138.2190  164.6502 C.3     1  UNL1        0.1609
     30 C         139.1979  138.8008  165.9937 C.ar    1  UNL1        0.1011
     31 C         138.1418  138.8737  167.0564 C.ar    1  UNL1        0.1154
     32 N         138.4684  139.4554  168.3998 N.ar    1  UNL1       -0.2410
     33 C         139.8513  139.9644  168.6806 C.ar    1  UNL1        0.0989
     34 C         140.1779  140.5461  170.0240 C.ar    1  UNL1        0.0206
     35 C         141.5607  141.0550  170.3047 C.ar    1  UNL1        0.0016
     36 C         142.6168  140.9822  169.2420 C.ar    1  UNL1        0.0016
     37 C         142.2902  140.4004  167.8986 C.ar    1  UNL1        0.0206
     38 C         140.9074  139.8915  167.6179 C.ar    1  UNL1        0.0986
     39 N         140.5807  139.3097  166.2744 N.ar    1  UNL1       -0.2446
@<TRIPOS>BOND
     1    25    26    1
     2    26    27    1
     3    26    28    2
     4    28    24    1
     5    24     1    1
     6     1     2   ar
     7     2    13    1
     8    13    14    1
     9    14    15    1
    10    15    16    1
    11    16    17    1
    12    17    18    1
    13    17    19    1
    14     2     3   ar
    15     3    22    1
    16    22    23    3
    17     3     4   ar
    18     4     5   ar
    19     5     6   ar
    20     6     7    2
    21     6     8   ar
    22     8    29    1
    23    29    30    1
    24    30    31   ar
    25    31    32   ar
    26    32    33   ar
    27    33    34   ar
    28    34    35   ar
    29    35    36   ar
    30    36    37   ar
    31    37    38   ar
    32    38    39   ar
    33     8     9   ar
    34     9    10    2
    35     9    11   ar
    36    11    12    1
    37     5     1   ar
    38    39    30   ar
    39    19    13    1
    40    11     4   ar
    41    38    33   ar
    42    18    20    1
    43    18    21    1
@<TRIPOS>MOLECULE
*****
 39 43 0 0 0
SMALL
GASTEIGER

@<TRIPOS>ATOM
      1 N         138.9936  141.5318  162.7982 N.ar    1  UNL1       -0.3063
      2 C         139.8431  140.6774  163.6917 C.ar    1  UNL1        0.1240
      3 C         141.0134  140.1892  162.8903 C.ar    1  UNL1        0.1156
      4 C         140.8870  140.7419  161.5016 C.ar    1  UNL1        0.0966
      5 C         139.6388  141.5716  161.4447 C.ar    1  UNL1        0.1349
      6 C         139.2509  142.2563  160.1676 C.ar    1  UNL1        0.2819
      7 O         138.0026  143.0860  160.1107 O.2     1  UNL1       -0.2652
      8 N         140.1112  142.1112  158.9475 N.ar    1  UNL1       -0.2416
      9 C         141.3596  141.2814  159.0044 C.ar    1  UNL1        0.3342
     10 O         142.2199  141.1363  157.7844 O.2     1  UNL1       -0.2462
     11 N         141.7475  140.5967  160.2815 N.ar    1  UNL1       -0.2770
     12 C         142.9957  139.7670  160.3384 C.3     1  UNL1        0.1351
     13 N         139.5703  140.3659  165.1335 N.pl3   1  UNL1       -0.2926
     14 C         140.3463  141.0631  166.2112 C.3     1  UNL1        0.0922
     15 C         140.0735  140.7516  167.6529 C.3     1  UNL1        0.0229
     16 C         139.0247  139.7428  168.0168 C.3     1  UNL1        0.0190
     17 C         138.2488  139.0456  166.9390 C.3     1  UNL1        0.0709
     18 N         137.2000  138.0368  167.3029 N.3     1  UNL1       -0.3208
     19 C         138.5216  139.3571  165.4974 C.3     1  UNL1        0.1075
     20 H         137.1485  137.9510  168.3180 H       1  UNL1        0.1189
     21 H         137.4423  137.1330  166.8971 H       1  UNL1        0.1189
     22 C         142.1163  139.3038  163.3899 C.1     1  UNL1        0.1047
     23 N         143.2193  138.4184  163.8896 N.1     1  UNL1       -0.1907
     24 C         137.7221  142.2247  163.1896 C.3     1  UNL1        0.1332
     25 C         138.3364  145.0973  165.8581 C.3     1  UNL1        0.0261
     26 C         138.3998  144.3104  164.5826 C.2     1  UNL1       -0.0460
     27 C         139.2043  144.8224  163.4247 C.3     1  UNL1        0.0261
     28 C         137.6587  143.0116  164.4650 C.2     1  UNL1       -0.0102
     29 C         139.7233  142.7958  157.6705 C.3     1  UNL1        0.1609
     30 C         138.6778  142.1894  156.7821 C.ar    1  UNL1        0.1011
     31 C         138.1947  140.7925  157.0377 C.ar    1  UNL1        0.1154
     32 N         137.1493  140.1861  156.1493 N.ar    1  UNL1       -0.2410
     33 C         136.5869  140.9766  155.0052 C.ar    1  UNL1        0.0989
     34 C         135.5414  140.3703  154.1168 C.ar    1  UNL1        0.0206
     35 C         134.9791  141.1607  152.9728 C.ar    1  UNL1        0.0016
     36 C         135.4622  142.5576  152.7171 C.ar    1  UNL1        0.0016
     37 C         136.5076  143.1640  153.6055 C.ar    1  UNL1        0.0206
     38 C         137.0700  142.3735  154.7496 C.ar    1  UNL1        0.0986
     39 N         138.1155  142.9799  155.6380 N.ar    1  UNL1       -0.2446
@<TRIPOS>BOND
     1    25    26    1
     2    26    27    1
     3    26    28    2
     4    28    24    1
     5    24     1    1
     6     1     2   ar
     7     2    13    1
     8    13    14    1
     9    14    15    1
    10    15    16    1
    11    16    17    1
    12    17    18    1
    13    17    19    1
    14     2     3   ar
    15     3    22    1
    16    22    23    3
    17     3     4   ar
    18     4     5   ar
    19     5     6   ar
    20     6     7    2
    21     6     8   ar
    22     8    29    1
    23    29    30    1
    24    30    31   ar
    25    31    32   ar
    26    32    33   ar
    27    33    34   ar
    28    34    35   ar
    29    35    36   ar
    30    36    37   ar
    31    37    38   ar
    32    38    39   ar
    33     8     9   ar
    34     9    10    2
    35     9    11   ar
    36    11    12    1
    37     5     1   ar
    38    39    30   ar
    39    19    13    1
    40    11     4   ar
    41    38    33   ar
    42    18    20    1
    43    18    21    1
