@<TRIPOS>MOLECULE
*****
 20 21 0 0 0
SMALL
GASTEIGER

@<TRIPOS>ATOM
      1 C         138.9291  139.4005  166.3479 C.2     1  UNL1        0.1535
      2 N         138.6972  139.1304  167.8050 N.2     1  UNL1       -0.2470
      3 C         139.3982  140.1979  168.5917 C.3     1  UNL1        0.1720
      4 C         139.5168  140.4434  170.0667 C.3     1  UNL1        0.1653
      5 O         138.8516  139.5135  171.0376 O.3     1  UNL1       -0.3798
      6 C         140.3006  141.6188  170.5708 C.3     1  UNL1        0.1688
      7 O         140.4192  141.8643  172.0458 O.3     1  UNL1       -0.3794
      8 C         140.9658  142.5488  169.5998 C.3     1  UNL1        0.1749
      9 O         140.8472  142.3032  168.1248 O.3     1  UNL1       -0.3402
     10 C         140.0634  141.1279  167.6207 C.3     1  UNL1        0.1938
     11 S         139.7735  140.6350  166.2340 S.3     1  UNL1       -0.0497
     12 H         139.0259  139.8132  171.9436 H       1  UNL1        0.2105
     13 H         139.9348  141.1761  172.5281 H       1  UNL1        0.2105
     14 N         138.4081  138.5801  165.2053 N.pl3   1  UNL1       -0.3135
     15 H         137.5406  138.1212  165.2841 H       1  UNL1        0.1487
     16 C         138.5118  138.2677  162.6281 C.3     1  UNL1        0.0230
     17 C         139.2087  138.4590  163.9426 C.3     1  UNL1        0.0887
     18 C         141.7496  143.7241  170.1038 C.3     1  UNL1        0.1742
     19 O         143.1404  143.5280  170.6305 O.3     1  UNL1       -0.3484
     20 C         144.0469  142.5155  169.9958 C.3     1  UNL1        0.1742
@<TRIPOS>BOND
     1    16    17    1
     2    17    14    1
     3    14     1    1
     4     1     2    2
     5     3     2    1
     6     3     4    1
     7     4     5    1
     8     4     6    1
     9     6     7    1
    10     6     8    1
    11     8    18    1
    12    18    19    1
    13    19    20    1
    14     8     9    1
    15    10     9    1
    16    10    11    1
    17    11     1    1
    18    10     3    1
    19    14    15    1
    20     5    12    1
    21     7    13    1
@<TRIPOS>MOLECULE
*****
 20 21 0 0 0
SMALL
GASTEIGER

@<TRIPOS>ATOM
      1 C         138.6064  141.0114  165.0764 C.2     1  UNL1        0.1535
      2 N         138.0932  142.1423  164.2352 N.2     1  UNL1       -0.2470
      3 C         139.2280  143.0933  163.9947 C.3     1  UNL1        0.1720
      4 C         139.3122  144.3836  163.2345 C.3     1  UNL1        0.1653
      5 O         138.0976  144.9268  162.5420 O.3     1  UNL1       -0.3798
      6 C         140.6112  145.1308  163.1669 C.3     1  UNL1        0.1688
      7 O         140.6954  146.4212  162.4068 O.3     1  UNL1       -0.3794
      8 C         141.8258  144.5876  163.8594 C.3     1  UNL1        0.1749
      9 O         141.7415  143.2972  164.6196 O.3     1  UNL1       -0.3402
     10 C         140.4427  142.5501  164.6872 C.3     1  UNL1        0.1938
     11 S         140.0585  141.2634  165.3557 S.3     1  UNL1       -0.0497
     12 H         138.3227  145.7611  162.1014 H       1  UNL1        0.2105
     13 H         139.8288  146.6275  162.0230 H       1  UNL1        0.2105
     14 N         137.8079  139.8350  165.5543 N.pl3   1  UNL1       -0.3135
     15 H         136.8244  139.8790  165.5643 H       1  UNL1        0.1487
     16 C         139.0343  137.6095  165.0128 C.3     1  UNL1        0.0230
     17 C         138.5077  138.5915  166.0169 C.3     1  UNL1        0.0887
     18 C         143.1247  145.3348  163.7918 C.3     1  UNL1        0.1742
     19 O         144.0961  145.0516  162.6845 O.3     1  UNL1       -0.3484
     20 C         144.4161  143.6344  162.3117 C.3     1  UNL1        0.1742
@<TRIPOS>BOND
     1    16    17    1
     2    17    14    1
     3    14     1    1
     4     1     2    2
     5     3     2    1
     6     3     4    1
     7     4     5    1
     8     4     6    1
     9     6     7    1
    10     6     8    1
    11     8    18    1
    12    18    19    1
    13    19    20    1
    14     8     9    1
    15    10     9    1
    16    10    11    1
    17    11     1    1
    18    10     3    1
    19    14    15    1
    20     5    12    1
    21     7    13    1
@<TRIPOS>MOLECULE
*****
 20 21 0 0 0
SMALL
GASTEIGER

@<TRIPOS>ATOM
      1 C         139.9804  140.8339  166.8144 C.2     1  UNL1        0.1535
      2 N         138.8828  140.5956  165.8202 N.2     1  UNL1       -0.2470
      3 C         138.8630  141.7524  164.8655 C.3     1  UNL1        0.1720
      4 C         137.9969  142.0609  163.6803 C.3     1  UNL1        0.1653
      5 O         136.9115  141.1077  163.2761 O.3     1  UNL1       -0.3798
      6 C         138.2162  143.3226  162.8992 C.3     1  UNL1        0.1688
      7 O         137.3501  143.6311  161.7141 O.3     1  UNL1       -0.3794
      8 C         139.3015  144.2758  163.3034 C.3     1  UNL1        0.1749
      9 O         140.1677  143.9673  164.4886 O.3     1  UNL1       -0.3402
     10 C         139.9484  142.7056  165.2696 C.3     1  UNL1        0.1938
     11 S         140.6389  142.1379  166.4742 S.3     1  UNL1       -0.0497
     12 H         136.4499  141.4549  162.4969 H       1  UNL1        0.2105
     13 H         136.7041  142.9180  161.5913 H       1  UNL1        0.2105
     14 N         140.3538  139.9273  167.9496 N.pl3   1  UNL1       -0.3135
     15 H         140.7041  139.0259  167.7650 H       1  UNL1        0.1487
     16 C         138.8485  140.3353  170.0275 C.3     1  UNL1        0.0230
     17 C         140.1936  140.3940  169.3661 C.3     1  UNL1        0.0887
     18 C         139.5208  145.5375  162.5224 C.3     1  UNL1        0.1742
     19 O         139.5042  145.5039  161.0229 O.3     1  UNL1       -0.3484
     20 C         140.7254  145.0679  160.2689 C.3     1  UNL1        0.1742
@<TRIPOS>BOND
     1    16    17    1
     2    17    14    1
     3    14     1    1
     4     1     2    2
     5     3     2    1
     6     3     4    1
     7     4     5    1
     8     4     6    1
     9     6     7    1
    10     6     8    1
    11     8    18    1
    12    18    19    1
    13    19    20    1
    14     8     9    1
    15    10     9    1
    16    10    11    1
    17    11     1    1
    18    10     3    1
    19    14    15    1
    20     5    12    1
    21     7    13    1
@<TRIPOS>MOLECULE
*****
 20 21 0 0 0
SMALL
GASTEIGER

@<TRIPOS>ATOM
      1 C         141.6296  140.9671  167.2586 C.2     1  UNL1        0.1535
      2 N         140.5670  140.0928  166.6616 N.2     1  UNL1       -0.2470
      3 C         139.7280  140.9393  165.7507 C.3     1  UNL1        0.1720
      4 C         138.5389  140.6181  164.8947 C.3     1  UNL1        0.1653
      5 O         137.9948  139.2207  164.8606 O.3     1  UNL1       -0.3798
      6 C         137.8938  141.6944  164.0727 C.3     1  UNL1        0.1688
      7 O         136.7047  141.3732  163.2166 O.3     1  UNL1       -0.3794
      8 C         138.4379  143.0918  164.1068 C.3     1  UNL1        0.1749
      9 O         139.6271  143.4129  164.9629 O.3     1  UNL1       -0.3402
     10 C         140.2721  142.3367  165.7848 C.3     1  UNL1        0.1938
     11 S         141.4474  142.3539  166.7168 S.3     1  UNL1       -0.0497
     12 H         137.2319  139.1853  164.2626 H       1  UNL1        0.2105
     13 H         136.4839  140.4333  163.3095 H       1  UNL1        0.2105
     14 N         142.6885  140.5311  168.2274 N.pl3   1  UNL1       -0.3135
     15 H         143.3000  139.7967  167.9908 H       1  UNL1        0.1487
     16 C         143.8163  142.3164  169.7410 C.3     1  UNL1        0.0230
     17 C         142.8158  141.2140  169.5569 C.3     1  UNL1        0.0887
     18 C         137.7930  144.1681  163.2849 C.3     1  UNL1        0.1742
     19 O         138.4874  144.6984  162.0656 O.3     1  UNL1       -0.3484
     20 C         139.5628  145.7346  162.2062 C.3     1  UNL1        0.1742
@<TRIPOS>BOND
     1    16    17    1
     2    17    14    1
     3    14     1    1
     4     1     2    2
     5     3     2    1
     6     3     4    1
     7     4     5    1
     8     4     6    1
     9     6     7    1
    10     6     8    1
    11     8    18    1
    12    18    19    1
    13    19    20    1
    14     8     9    1
    15    10     9    1
    16    10    11    1
    17    11     1    1
    18    10     3    1
    19    14    15    1
    20     5    12    1
    21     7    13    1
@<TRIPOS>MOLECULE
*****
 20 21 0 0 0
SMALL
GASTEIGER

@<TRIPOS>ATOM
      1 C         139.7694  144.7153  162.9735 C.2     1  UNL1        0.1535
      2 N         138.6777  143.6991  162.8139 N.2     1  UNL1       -0.2470
      3 C         138.8303  142.6797  163.9037 C.3     1  UNL1        0.1720
      4 C         138.0424  141.4498  164.2450 C.3     1  UNL1        0.1653
      5 O         136.8563  141.0637  163.4119 O.3     1  UNL1       -0.3798
      6 C         138.4407  140.6060  165.4195 C.3     1  UNL1        0.1688
      7 O         137.6528  139.3760  165.7609 O.3     1  UNL1       -0.3794
      8 C         139.6267  140.9921  166.2527 C.3     1  UNL1        0.1749
      9 O         140.4146  142.2221  165.9113 O.3     1  UNL1       -0.3402
     10 C         140.0163  143.0659  164.7368 C.3     1  UNL1        0.1938
     11 S         140.5968  144.3239  164.1619 S.3     1  UNL1       -0.0497
     12 H         136.4635  140.2505  163.7659 H       1  UNL1        0.2105
     13 H         136.9253  139.2720  165.1278 H       1  UNL1        0.2105
     14 N         139.9944  145.9126  162.0983 N.pl3   1  UNL1       -0.3135
     15 H         139.9823  146.8165  162.4882 H       1  UNL1        0.1487
     16 C         141.2682  144.7516  160.1543 C.3     1  UNL1        0.0230
     17 C         140.2377  145.7326  160.6292 C.3     1  UNL1        0.0887
     18 C         140.0250  140.1484  167.4271 C.3     1  UNL1        0.1742
     19 O         138.9909  139.7123  168.4224 O.3     1  UNL1       -0.3484
     20 C         138.9587  140.3288  169.7894 C.3     1  UNL1        0.1742
@<TRIPOS>BOND
     1    16    17    1
     2    17    14    1
     3    14     1    1
     4     1     2    2
     5     3     2    1
     6     3     4    1
     7     4     5    1
     8     4     6    1
     9     6     7    1
    10     6     8    1
    11     8    18    1
    12    18    19    1
    13    19    20    1
    14     8     9    1
    15    10     9    1
    16    10    11    1
    17    11     1    1
    18    10     3    1
    19    14    15    1
    20     5    12    1
    21     7    13    1
@<TRIPOS>MOLECULE
*****
 20 21 0 0 0
SMALL
GASTEIGER

@<TRIPOS>ATOM
      1 C         142.2939  144.0929  161.3662 C.2     1  UNL1        0.1535
      2 N         143.7047  143.7008  161.6917 N.2     1  UNL1       -0.2470
      3 C         143.6661  142.3845  162.4098 C.3     1  UNL1        0.1720
      4 C         144.7520  141.5152  162.9712 C.3     1  UNL1        0.1653
      5 O         146.1867  141.9367  162.8529 O.3     1  UNL1       -0.3798
      6 C         144.4032  140.2243  163.6510 C.3     1  UNL1        0.1688
      7 O         145.4890  139.3550  164.2124 O.3     1  UNL1       -0.3794
      8 C         142.9685  139.8028  163.7693 C.3     1  UNL1        0.1749
      9 O         141.8826  140.6721  163.2079 O.3     1  UNL1       -0.3402
     10 C         142.2314  141.9629  162.5281 C.3     1  UNL1        0.1938
     11 S         141.3834  143.0188  161.8832 S.3     1  UNL1       -0.0497
     12 H         146.7554  141.2672  163.2643 H       1  UNL1        0.2105
     13 H         146.3509  139.7704  164.0525 H       1  UNL1        0.2105
     14 N         141.8684  145.3400  160.6496 N.pl3   1  UNL1       -0.3135
     15 H         142.4905  146.0990  160.5708 H       1  UNL1        0.1487
     16 C         140.2702  145.0334  158.6244 C.3     1  UNL1        0.0230
     17 C         140.4951  145.4308  160.0532 C.3     1  UNL1        0.0887
     18 C         142.6197  138.5119  164.4491 C.3     1  UNL1        0.1742
     19 O         143.2565  138.1589  165.7605 O.3     1  UNL1       -0.3484
     20 C         142.9507  138.9692  166.9851 C.3     1  UNL1        0.1742
@<TRIPOS>BOND
     1    16    17    1
     2    17    14    1
     3    14     1    1
     4     1     2    2
     5     3     2    1
     6     3     4    1
     7     4     5    1
     8     4     6    1
     9     6     7    1
    10     6     8    1
    11     8    18    1
    12    18    19    1
    13    19    20    1
    14     8     9    1
    15    10     9    1
    16    10    11    1
    17    11     1    1
    18    10     3    1
    19    14    15    1
    20     5    12    1
    21     7    13    1
@<TRIPOS>MOLECULE
*****
 20 21 0 0 0
SMALL
GASTEIGER

@<TRIPOS>ATOM
      1 C         142.4395  142.0416  167.1355 C.2     1  UNL1        0.1535
      2 N         143.3425  142.5058  166.0314 N.2     1  UNL1       -0.2470
      3 C         142.5001  143.2074  165.0076 C.3     1  UNL1        0.1720
      4 C         142.8454  143.8701  163.7071 C.3     1  UNL1        0.1653
      5 O         144.2691  143.9007  163.2357 O.3     1  UNL1       -0.3798
      6 C         141.7671  144.5023  162.8778 C.3     1  UNL1        0.1688
      7 O         142.1124  145.1651  161.5773 O.3     1  UNL1       -0.3794
      8 C         140.3434  144.4718  163.3492 C.3     1  UNL1        0.1749
      9 O         139.9981  143.8090  164.6499 O.3     1  UNL1       -0.3402
     10 C         141.0764  143.1769  165.4790 C.3     1  UNL1        0.1938
     11 S         141.0390  142.4564  166.7941 S.3     1  UNL1       -0.0497
     12 H         144.3180  144.3631  162.3844 H       1  UNL1        0.2105
     13 H         143.0676  145.0961  161.4229 H       1  UNL1        0.2105
     14 N         142.8626  141.2940  168.3652 N.pl3   1  UNL1       -0.3135
     15 H         142.7483  140.3173  168.4111 H       1  UNL1        0.1487
     16 C         142.6271  143.0118  170.3000 C.3     1  UNL1        0.0230
     17 C         143.4601  142.0346  169.5247 C.3     1  UNL1        0.0887
     18 C         139.2651  145.1040  162.5201 C.3     1  UNL1        0.1742
     19 O         137.9776  144.3727  162.2801 O.3     1  UNL1       -0.3484
     20 C         137.9981  142.9178  161.9157 C.3     1  UNL1        0.1742
@<TRIPOS>BOND
     1    16    17    1
     2    17    14    1
     3    14     1    1
     4     1     2    2
     5     3     2    1
     6     3     4    1
     7     4     5    1
     8     4     6    1
     9     6     7    1
    10     6     8    1
    11     8    18    1
    12    18    19    1
    13    19    20    1
    14     8     9    1
    15    10     9    1
    16    10    11    1
    17    11     1    1
    18    10     3    1
    19    14    15    1
    20     5    12    1
    21     7    13    1
@<TRIPOS>MOLECULE
*****
 20 21 0 0 0
SMALL
GASTEIGER

@<TRIPOS>ATOM
      1 C         142.0400  143.9770  162.2106 C.2     1  UNL1        0.1535
      2 N         140.5921  144.3597  162.2939 N.2     1  UNL1       -0.2470
      3 C         139.7978  143.1145  162.5559 C.3     1  UNL1        0.1720
      4 C         138.3267  142.8811  162.7330 C.3     1  UNL1        0.1653
      5 O         137.3696  144.0334  162.6543 O.3     1  UNL1       -0.3798
      6 C         137.8127  141.4953  162.9887 C.3     1  UNL1        0.1688
      7 O         136.3416  141.2618  163.1658 O.3     1  UNL1       -0.3794
      8 C         138.7697  140.3430  163.0673 C.3     1  UNL1        0.1749
      9 O         140.2409  140.5765  162.8902 O.3     1  UNL1       -0.3402
     10 C         140.7549  141.9622  162.6345 C.3     1  UNL1        0.1938
     11 S         142.1406  142.4953  162.4211 S.3     1  UNL1       -0.0497
     12 H         136.4646  143.7118  162.7897 H       1  UNL1        0.2105
     13 H         135.8685  142.1049  163.0863 H       1  UNL1        0.2105
     14 N         143.1861  144.9119  161.9608 N.pl3   1  UNL1       -0.3135
     15 H         143.2281  145.4262  161.1223 H       1  UNL1        0.1487
     16 C         143.9206  145.0762  164.4474 C.3     1  UNL1        0.0230
     17 C         144.2683  145.0633  162.9883 C.3     1  UNL1        0.0887
     18 C         138.2557  138.9572  163.3231 C.3     1  UNL1        0.1742
     19 O         138.7858  138.1622  164.4793 O.3     1  UNL1       -0.3484
     20 C         138.4425  138.5611  165.8839 C.3     1  UNL1        0.1742
@<TRIPOS>BOND
     1    16    17    1
     2    17    14    1
     3    14     1    1
     4     1     2    2
     5     3     2    1
     6     3     4    1
     7     4     5    1
     8     4     6    1
     9     6     7    1
    10     6     8    1
    11     8    18    1
    12    18    19    1
    13    19    20    1
    14     8     9    1
    15    10     9    1
    16    10    11    1
    17    11     1    1
    18    10     3    1
    19    14    15    1
    20     5    12    1
    21     7    13    1
@<TRIPOS>MOLECULE
*****
 20 21 0 0 0
SMALL
GASTEIGER

@<TRIPOS>ATOM
      1 C         141.8971  141.9053  166.5517 C.2     1  UNL1        0.1535
      2 N         140.6559  142.6693  166.1974 N.2     1  UNL1       -0.2470
      3 C         139.8471  141.8284  165.2546 C.3     1  UNL1        0.1720
      4 C         138.5314  142.0658  164.5747 C.3     1  UNL1        0.1653
      5 O         137.7900  143.3496  164.8030 O.3     1  UNL1       -0.3798
      6 C         137.9570  141.0193  163.6663 C.3     1  UNL1        0.1688
      7 O         136.6413  141.2568  162.9863 O.3     1  UNL1       -0.3794
      8 C         138.6984  139.7355  163.4380 C.3     1  UNL1        0.1749
      9 O         140.0142  139.4981  164.1180 O.3     1  UNL1       -0.3402
     10 C         140.5885  140.5446  165.0263 C.3     1  UNL1        0.1938
     11 S         141.8555  140.5921  165.8280 S.3     1  UNL1       -0.0497
     12 H         136.9649  143.3416  164.2931 H       1  UNL1        0.2105
     13 H         136.2989  142.1282  163.2398 H       1  UNL1        0.2105
     14 N         142.9884  142.3724  167.4687 N.pl3   1  UNL1       -0.3135
     15 H         143.6618  143.0139  167.1458 H       1  UNL1        0.1487
     16 C         142.8271  142.8000  170.0263 C.3     1  UNL1        0.0230
     17 C         143.0537  141.8622  168.8777 C.3     1  UNL1        0.0887
     18 C         138.1240  138.6891  162.5297 C.3     1  UNL1        0.1742
     19 O         137.5544  139.0818  161.1988 O.3     1  UNL1       -0.3484
     20 C         138.3970  139.8406  160.2168 C.3     1  UNL1        0.1742
@<TRIPOS>BOND
     1    16    17    1
     2    17    14    1
     3    14     1    1
     4     1     2    2
     5     3     2    1
     6     3     4    1
     7     4     5    1
     8     4     6    1
     9     6     7    1
    10     6     8    1
    11     8    18    1
    12    18    19    1
    13    19    20    1
    14     8     9    1
    15    10     9    1
    16    10    11    1
    17    11     1    1
    18    10     3    1
    19    14    15    1
    20     5    12    1
    21     7    13    1
