@<TRIPOS>MOLECULE
*****
 33 38 0 0 0
SMALL
GASTEIGER

@<TRIPOS>ATOM
      1 C         140.7478  142.1862  167.5247 C.3     1  UNL1        0.0279
      2 C         141.0691  142.8778  166.2329 C.3     1  UNL1        0.0089
      3 C         140.3431  142.1636  165.1317 C.3     1  UNL1        0.0227
      4 C         141.1625  143.3303  164.6657 C.3     1  UNL1        0.0257
      5 C         141.1999  143.6865  163.2091 C.3     1  UNL1        0.0953
      6 N         140.4179  142.8760  162.2185 N.am    1  UNL1       -0.2642
      7 C         140.4553  143.2322  160.7618 C.2     1  UNL1        0.3039
      8 O         139.6732  142.4217  159.7712 O.2     1  UNL1       -0.2526
      9 N         141.2748  144.3990  160.2959 N.am    1  UNL1       -0.2904
     10 C         139.5984  141.7092  162.6844 C.3     1  UNL1        0.0953
     11 C         139.5610  141.3530  164.1410 C.3     1  UNL1        0.0257
     12 C         139.5730  141.0306  165.7428 C.ar    1  UNL1       -0.0204
     13 C         138.6763  139.9880  165.1436 C.ar    1  UNL1        0.0303
     14 BR        138.4262  139.9740  163.6647 Br      1  UNL1       -0.0493
     15 C         138.0298  138.9594  166.0234 C.ar    1  UNL1        0.0064
     16 C         138.2800  138.9734  167.5024 C.ar    1  UNL1        0.0002
     17 C         139.1766  140.0160  168.1015 C.ar    1  UNL1       -0.0045
     18 C         139.8231  141.0446  167.2217 C.ar    1  UNL1       -0.0256
     19 H         141.7881  144.9309  160.9461 H       1  UNL1        0.1509
     20 C         141.3122  144.7552  158.8393 C.3     1  UNL1        0.0729
     21 C         142.2349  144.0221  157.9113 C.3     1  UNL1        0.0180
     22 C         141.3496  145.1115  157.3827 C.3     1  UNL1        0.0016
     23 C         141.3870  145.4678  155.9261 C.3     1  UNL1        0.0001
     24 C         142.3097  144.7346  154.9981 C.3     1  UNL1        0.0000
     25 C         143.1950  143.6452  155.5267 C.3     1  UNL1        0.0001
     26 C         143.1576  143.2889  156.9834 C.3     1  UNL1        0.0016
     27 C         141.4707  144.7924  158.0801 C.3     1  UNL1        0.0016
     28 C         140.4269  145.8446  158.3106 C.3     1  UNL1        0.0180
     29 C         140.4643  146.2009  156.8541 C.3     1  UNL1        0.0016
     30 C         141.2610  142.5690  168.8812 C.3     1  UNL1        0.0460
     31 O         140.2693  144.6409  170.0952 O.co2   1  UNL1       -0.5492
     32 C         140.3273  143.1550  169.8984 C.2     1  UNL1        0.0507
     33 O         139.4515  142.2551  170.7188 O.co2   1  UNL1       -0.5492
@<TRIPOS>UNITY_ATOM_ATTR
31 1
charge -1
@<TRIPOS>BOND
     1    31    32   ar
     2    32    33   ar
     3    32    30    1
     4    30     1    1
     5     1     2    1
     6     2     3    1
     7     3     4    1
     8     4     5    1
     9     5     6    1
    10     6     7   am
    11     7     8    2
    12     7     9   am
    13     9    20    1
    14    20    21    1
    15    21    22    1
    16    22    23    1
    17    23    24    1
    18    24    25    1
    19    25    26    1
    20    25    27    1
    21    27    28    1
    22    28    29    1
    23     6    10    1
    24    10    11    1
    25     3    12    1
    26    12    13   ar
    27    13    14    1
    28    13    15   ar
    29    15    16   ar
    30    16    17   ar
    31    17    18   ar
    32    18     1    1
    33    11     3    1
    34    18    12   ar
    35    28    20    1
    36    26    21    1
    37    29    23    1
    38     9    19    1
@<TRIPOS>MOLECULE
*****
 33 38 0 0 0
SMALL
GASTEIGER

@<TRIPOS>ATOM
      1 C         140.8162  142.2105  167.4839 C.3     1  UNL1        0.0279
      2 C         141.1621  142.8823  166.1880 C.3     1  UNL1        0.0089
      3 C         140.4483  142.1579  165.0853 C.3     1  UNL1        0.0227
      4 C         141.2827  143.3128  164.6164 C.3     1  UNL1        0.0257
      5 C         141.3450  143.6488  163.1559 C.3     1  UNL1        0.0953
      6 N         140.5729  142.8299  162.1643 N.am    1  UNL1       -0.2642
      7 C         140.6352  143.1660  160.7037 C.2     1  UNL1        0.3039
      8 O         139.8631  142.3471  159.7121 O.2     1  UNL1       -0.2526
      9 N         141.4696  144.3209  160.2348 N.am    1  UNL1       -0.2904
     10 C         139.7385  141.6750  162.6332 C.3     1  UNL1        0.0953
     11 C         139.6762  141.3390  164.0937 C.3     1  UNL1        0.0257
     12 C         139.6613  141.0384  165.6997 C.ar    1  UNL1       -0.0204
     13 C         138.7670  139.9936  165.1009 C.ar    1  UNL1        0.0303
     14 BR        138.5396  139.9610  163.6186 Br      1  UNL1       -0.0493
     15 C         138.1001  138.9813  165.9843 C.ar    1  UNL1        0.0064
     16 C         138.3275  139.0139  167.4667 C.ar    1  UNL1        0.0002
     17 C         139.2217  140.0587  168.0655 C.ar    1  UNL1       -0.0045
     18 C         139.8887  141.0709  167.1821 C.ar    1  UNL1       -0.0256
     19 H         141.9764  144.8584  160.8856 H       1  UNL1        0.1509
     20 C         141.5320  144.6570  158.7742 C.3     1  UNL1        0.0729
     21 C         140.5660  145.6446  158.1900 C.3     1  UNL1        0.0180
     22 C         141.5943  144.9930  157.3137 C.3     1  UNL1        0.0016
     23 C         141.6567  145.3291  155.8532 C.3     1  UNL1        0.0001
     24 C         140.6906  146.3168  155.2689 C.3     1  UNL1        0.0000
     25 C         139.6623  146.9684  156.1452 C.3     1  UNL1        0.0001
     26 C         139.6000  146.6323  157.6058 C.3     1  UNL1        0.0016
     27 C         141.4089  144.9518  158.0665 C.3     1  UNL1        0.0016
     28 C         142.5603  144.0054  157.8979 C.3     1  UNL1        0.0180
     29 C         142.6226  144.3414  156.4374 C.3     1  UNL1        0.0016
     30 C         141.3110  142.6085  168.8428 C.3     1  UNL1        0.0460
     31 O         139.5483  142.2462  170.7168 O.co2   1  UNL1       -0.5492
     32 C         140.3559  143.1700  169.8539 C.2     1  UNL1        0.0507
     33 O         140.2082  144.6553  170.0021 O.co2   1  UNL1       -0.5492
@<TRIPOS>UNITY_ATOM_ATTR
31 1
charge -1
@<TRIPOS>BOND
     1    31    32   ar
     2    32    33   ar
     3    32    30    1
     4    30     1    1
     5     1     2    1
     6     2     3    1
     7     3     4    1
     8     4     5    1
     9     5     6    1
    10     6     7   am
    11     7     8    2
    12     7     9   am
    13     9    20    1
    14    20    21    1
    15    21    22    1
    16    22    23    1
    17    23    24    1
    18    24    25    1
    19    25    26    1
    20    25    27    1
    21    27    28    1
    22    28    29    1
    23     6    10    1
    24    10    11    1
    25     3    12    1
    26    12    13   ar
    27    13    14    1
    28    13    15   ar
    29    15    16   ar
    30    16    17   ar
    31    17    18   ar
    32    18     1    1
    33    11     3    1
    34    18    12   ar
    35    28    20    1
    36    26    21    1
    37    29    23    1
    38     9    19    1
@<TRIPOS>MOLECULE
*****
 33 38 0 0 0
SMALL
GASTEIGER

@<TRIPOS>ATOM
      1 C         140.7072  142.4643  168.1291 C.3     1  UNL1        0.0279
      2 C         140.3576  142.9873  166.7673 C.3     1  UNL1        0.0089
      3 C         140.9534  142.0618  165.7483 C.3     1  UNL1        0.0227
      4 C         140.1984  143.2153  165.1573 C.3     1  UNL1        0.0257
      5 C         140.0946  143.3594  163.6679 C.3     1  UNL1        0.0953
      6 N         140.7457  142.3501  162.7695 N.am    1  UNL1       -0.2642
      7 C         140.6419  142.4943  161.2800 C.2     1  UNL1        0.3039
      8 O         141.2931  141.4849  160.3816 O.2     1  UNL1       -0.2526
      9 N         139.8869  143.6478  160.6890 N.am    1  UNL1       -0.2904
     10 C         141.5007  141.1965  163.3605 C.3     1  UNL1        0.0953
     11 C         141.6045  141.0524  164.8499 C.3     1  UNL1        0.0257
     12 C         141.6712  140.9667  166.4802 C.ar    1  UNL1       -0.0204
     13 C         142.4437  139.7752  165.9970 C.ar    1  UNL1        0.0303
     14 BR        142.5959  139.5265  164.5256 Br      1  UNL1       -0.0493
     15 C         143.0641  138.8325  166.9850 C.ar    1  UNL1        0.0064
     16 C         142.9120  139.0813  168.4565 C.ar    1  UNL1        0.0002
     17 C         142.1395  140.2727  168.9397 C.ar    1  UNL1       -0.0045
     18 C         141.5191  141.2155  167.9516 C.ar    1  UNL1       -0.0256
     19 H         139.4595  144.3103  161.2786 H       1  UNL1        0.1509
     20 C         139.7831  143.7920  159.1995 C.3     1  UNL1        0.0729
     21 C         140.6695  144.7621  158.4763 C.3     1  UNL1        0.0180
     22 C         139.6792  143.9362  157.7101 C.3     1  UNL1        0.0016
     23 C         139.5753  144.0804  156.2207 C.3     1  UNL1        0.0001
     24 C         140.4618  145.0505  155.4974 C.3     1  UNL1        0.0000
     25 C         141.4521  145.8764  156.2636 C.3     1  UNL1        0.0001
     26 C         141.5560  145.7322  157.7531 C.3     1  UNL1        0.0016
     27 C         139.8763  144.0030  158.4581 C.3     1  UNL1        0.0016
     28 C         138.7928  142.9661  158.4333 C.3     1  UNL1        0.0180
     29 C         138.6889  143.1102  156.9439 C.3     1  UNL1        0.0016
     30 C         140.3140  143.0816  169.4384 C.3     1  UNL1        0.0460
     31 O         140.4986  142.2911  171.9064 O.co2   1  UNL1       -0.5492
     32 C         139.8350  142.2128  170.5634 C.2     1  UNL1        0.0507
     33 O         138.6925  141.2656  170.3455 O.co2   1  UNL1       -0.5492
@<TRIPOS>UNITY_ATOM_ATTR
31 1
charge -1
@<TRIPOS>BOND
     1    31    32   ar
     2    32    33   ar
     3    32    30    1
     4    30     1    1
     5     1     2    1
     6     2     3    1
     7     3     4    1
     8     4     5    1
     9     5     6    1
    10     6     7   am
    11     7     8    2
    12     7     9   am
    13     9    20    1
    14    20    21    1
    15    21    22    1
    16    22    23    1
    17    23    24    1
    18    24    25    1
    19    25    26    1
    20    25    27    1
    21    27    28    1
    22    28    29    1
    23     6    10    1
    24    10    11    1
    25     3    12    1
    26    12    13   ar
    27    13    14    1
    28    13    15   ar
    29    15    16   ar
    30    16    17   ar
    31    17    18   ar
    32    18     1    1
    33    11     3    1
    34    18    12   ar
    35    28    20    1
    36    26    21    1
    37    29    23    1
    38     9    19    1
@<TRIPOS>MOLECULE
*****
 33 38 0 0 0
SMALL
GASTEIGER

@<TRIPOS>ATOM
      1 C         139.7437  141.6930  164.8597 C.3     1  UNL1        0.0279
      2 C         139.4196  142.2488  163.5046 C.3     1  UNL1        0.0089
      3 C         140.6182  143.0067  163.0157 C.3     1  UNL1        0.0227
      4 C         139.4637  143.0073  162.0581 C.3     1  UNL1        0.0257
      5 C         139.5775  143.7263  160.7466 C.3     1  UNL1        0.0953
      6 N         140.8458  144.4447  160.3928 N.am    1  UNL1       -0.2642
      7 C         140.9596  145.1638  159.0812 C.2     1  UNL1        0.3039
      8 O         142.2279  145.8822  158.7273 O.2     1  UNL1       -0.2526
      9 N         139.8050  145.1644  158.1236 N.am    1  UNL1       -0.2904
     10 C         142.0003  144.4441  161.3503 C.3     1  UNL1        0.0953
     11 C         141.8865  143.7251  162.6618 C.3     1  UNL1        0.0257
     12 C         141.6830  142.9193  164.0687 C.ar    1  UNL1       -0.0204
     13 C         143.0750  143.4742  164.1369 C.ar    1  UNL1        0.0303
     14 BR        143.6154  144.2861  162.9973 Br      1  UNL1       -0.0493
     15 C         143.9264  143.2172  165.3448 C.ar    1  UNL1        0.0064
     16 C         143.3859  142.4052  166.4844 C.ar    1  UNL1        0.0002
     17 C         141.9940  141.8504  166.4161 C.ar    1  UNL1       -0.0045
     18 C         141.1425  142.1074  165.2083 C.ar    1  UNL1       -0.0256
     19 H         138.9726  144.6929  158.3559 H       1  UNL1        0.1509
     20 C         139.9188  145.8834  156.8120 C.3     1  UNL1        0.0729
     21 C         139.3547  147.2652  156.6629 C.3     1  UNL1        0.0180
     22 C         140.0326  146.6024  155.5005 C.3     1  UNL1        0.0016
     23 C         140.1464  147.3213  154.1890 C.3     1  UNL1        0.0001
     24 C         139.5822  148.7032  154.0398 C.3     1  UNL1        0.0000
     25 C         138.9044  149.3661  155.2022 C.3     1  UNL1        0.0001
     26 C         138.7906  148.6471  156.5138 C.3     1  UNL1        0.0016
     27 C         139.8796  146.4011  156.2346 C.3     1  UNL1        0.0016
     28 C         140.5967  145.2205  155.6497 C.3     1  UNL1        0.0180
     29 C         140.7104  145.9395  154.3382 C.3     1  UNL1        0.0016
     30 C         138.8294  140.8677  165.7159 C.3     1  UNL1        0.0460
     31 O         137.8112  138.5363  166.2432 O.co2   1  UNL1       -0.5492
     32 C         138.9304  139.3713  165.6952 C.2     1  UNL1        0.0507
     33 O         140.1505  138.7097  165.1264 O.co2   1  UNL1       -0.5492
@<TRIPOS>UNITY_ATOM_ATTR
31 1
charge -1
@<TRIPOS>BOND
     1    31    32   ar
     2    32    33   ar
     3    32    30    1
     4    30     1    1
     5     1     2    1
     6     2     3    1
     7     3     4    1
     8     4     5    1
     9     5     6    1
    10     6     7   am
    11     7     8    2
    12     7     9   am
    13     9    20    1
    14    20    21    1
    15    21    22    1
    16    22    23    1
    17    23    24    1
    18    24    25    1
    19    25    26    1
    20    25    27    1
    21    27    28    1
    22    28    29    1
    23     6    10    1
    24    10    11    1
    25     3    12    1
    26    12    13   ar
    27    13    14    1
    28    13    15   ar
    29    15    16   ar
    30    16    17   ar
    31    17    18   ar
    32    18     1    1
    33    11     3    1
    34    18    12   ar
    35    28    20    1
    36    26    21    1
    37    29    23    1
    38     9    19    1
@<TRIPOS>MOLECULE
*****
 33 38 0 0 0
SMALL
GASTEIGER

@<TRIPOS>ATOM
      1 C         138.3066  140.0376  164.5719 C.3     1  UNL1        0.0279
      2 C         138.5449  139.2057  163.3466 C.3     1  UNL1        0.0089
      3 C         138.6716  140.1328  162.1742 C.3     1  UNL1        0.0227
      4 C         138.8113  138.6815  161.8221 C.3     1  UNL1        0.0257
      5 C         139.0552  138.2751  160.3990 C.3     1  UNL1        0.0953
      6 N         139.1593  139.3201  159.3280 N.am    1  UNL1       -0.2642
      7 C         139.4032  138.9137  157.9048 C.2     1  UNL1        0.3039
      8 O         139.5073  139.9587  156.8337 O.2     1  UNL1       -0.2526
      9 N         139.5429  137.4623  157.5527 N.am    1  UNL1       -0.2904
     10 C         139.0196  140.7714  159.6800 C.3     1  UNL1        0.0953
     11 C         138.7757  141.1778  161.1032 C.3     1  UNL1        0.0257
     12 C         138.5116  141.5378  162.6750 C.ar    1  UNL1       -0.0204
     13 C         138.5422  142.8630  161.9731 C.ar    1  UNL1        0.0303
     14 BR        138.7678  142.9219  160.4913 Br      1  UNL1       -0.0493
     15 C         138.3472  144.1294  162.7529 C.ar    1  UNL1        0.0064
     16 C         138.1216  144.0705  164.2347 C.ar    1  UNL1        0.0002
     17 C         138.0910  142.7453  164.9366 C.ar    1  UNL1       -0.0045
     18 C         138.2860  141.4789  164.1567 C.ar    1  UNL1       -0.0256
     19 H         139.4746  136.7765  158.2557 H       1  UNL1        0.1509
     20 C         139.7868  137.0559  156.1295 C.3     1  UNL1        0.0729
     21 C         141.0594  136.3545  155.7574 C.3     1  UNL1        0.0180
     22 C         140.0307  136.6495  154.7063 C.3     1  UNL1        0.0016
     23 C         140.2745  136.2431  153.2832 C.3     1  UNL1        0.0001
     24 C         141.5471  135.5417  152.9110 C.3     1  UNL1        0.0000
     25 C         142.5759  135.2466  153.9621 C.3     1  UNL1        0.0001
     26 C         142.3320  135.6531  155.3853 C.3     1  UNL1        0.0016
     27 C         140.0867  136.7756  155.4704 C.3     1  UNL1        0.0016
     28 C         138.7581  137.3509  155.0785 C.3     1  UNL1        0.0180
     29 C         139.0019  136.9445  153.6553 C.3     1  UNL1        0.0016
     30 C         138.1213  139.5192  165.9672 C.3     1  UNL1        0.0460
     31 O         140.6046  140.0283  166.5368 O.co2   1  UNL1       -0.5492
     32 C         139.2124  139.6909  166.9821 C.2     1  UNL1        0.0507
     33 O         138.9114  139.5253  168.4422 O.co2   1  UNL1       -0.5492
@<TRIPOS>UNITY_ATOM_ATTR
31 1
charge -1
@<TRIPOS>BOND
     1    31    32   ar
     2    32    33   ar
     3    32    30    1
     4    30     1    1
     5     1     2    1
     6     2     3    1
     7     3     4    1
     8     4     5    1
     9     5     6    1
    10     6     7   am
    11     7     8    2
    12     7     9   am
    13     9    20    1
    14    20    21    1
    15    21    22    1
    16    22    23    1
    17    23    24    1
    18    24    25    1
    19    25    26    1
    20    25    27    1
    21    27    28    1
    22    28    29    1
    23     6    10    1
    24    10    11    1
    25     3    12    1
    26    12    13   ar
    27    13    14    1
    28    13    15   ar
    29    15    16   ar
    30    16    17   ar
    31    17    18   ar
    32    18     1    1
    33    11     3    1
    34    18    12   ar
    35    28    20    1
    36    26    21    1
    37    29    23    1
    38     9    19    1
@<TRIPOS>MOLECULE
*****
 33 38 0 0 0
SMALL
GASTEIGER

@<TRIPOS>ATOM
      1 C         139.2199  139.2572  164.9439 C.3     1  UNL1        0.0279
      2 C         139.1093  138.9914  163.4717 C.3     1  UNL1        0.0089
      3 C         140.4971  138.8457  162.9214 C.3     1  UNL1        0.0227
      4 C         139.4144  138.6929  161.8946 C.3     1  UNL1        0.0257
      5 C         139.7712  138.4195  160.4636 C.3     1  UNL1        0.0953
      6 N         141.2107  138.2988  160.0594 N.am    1  UNL1       -0.2642
      7 C         141.5675  138.0254  158.6283 C.2     1  UNL1        0.3039
      8 O         143.0070  137.9048  158.2241 O.2     1  UNL1       -0.2526
      9 N         140.4848  137.8726  157.6014 N.am    1  UNL1       -0.2904
     10 C         142.2934  138.4516  161.0862 C.3     1  UNL1        0.0953
     11 C         141.9365  138.7250  162.5172 C.3     1  UNL1        0.0257
     12 C         141.4654  139.0214  164.0535 C.ar    1  UNL1       -0.0204
     13 C         142.9640  138.9827  164.1076 C.ar    1  UNL1        0.0303
     14 BR        143.7533  138.7284  162.8577 Br      1  UNL1       -0.0493
     15 C         143.6732  139.1983  165.4116 C.ar    1  UNL1        0.0064
     16 C         142.8838  139.4526  166.6616 C.ar    1  UNL1        0.0002
     17 C         141.3854  139.4913  166.6074 C.ar    1  UNL1       -0.0045
     18 C         140.6761  139.2757  165.3034 C.ar    1  UNL1       -0.0256
     19 H         139.5400  137.9518  157.8667 H       1  UNL1        0.1509
     20 C         140.8416  137.5992  156.1703 C.3     1  UNL1        0.0729
     21 C         141.1672  136.2021  155.7323 C.3     1  UNL1        0.0180
     22 C         141.1984  137.3258  154.7392 C.3     1  UNL1        0.0016
     23 C         141.5551  137.0525  153.3082 C.3     1  UNL1        0.0001
     24 C         141.8808  135.6553  152.8701 C.3     1  UNL1        0.0000
     25 C         141.8496  134.5315  153.8632 C.3     1  UNL1        0.0001
     26 C         141.4929  134.8049  155.2943 C.3     1  UNL1        0.0016
     27 C         141.0428  137.2675  155.4977 C.3     1  UNL1        0.0016
     28 C         140.8727  138.7230  155.1772 C.3     1  UNL1        0.0180
     29 C         141.2295  138.4496  153.7462 C.3     1  UNL1        0.0016
     30 C         138.0754  139.4675  165.8904 C.3     1  UNL1        0.0460
     31 O         137.8130  138.9220  168.4170 O.co2   1  UNL1       -0.5492
     32 C         137.8154  138.4754  166.9850 C.2     1  UNL1        0.0507
     33 O         137.5577  137.0368  166.6476 O.co2   1  UNL1       -0.5492
@<TRIPOS>UNITY_ATOM_ATTR
31 1
charge -1
@<TRIPOS>BOND
     1    31    32   ar
     2    32    33   ar
     3    32    30    1
     4    30     1    1
     5     1     2    1
     6     2     3    1
     7     3     4    1
     8     4     5    1
     9     5     6    1
    10     6     7   am
    11     7     8    2
    12     7     9   am
    13     9    20    1
    14    20    21    1
    15    21    22    1
    16    22    23    1
    17    23    24    1
    18    24    25    1
    19    25    26    1
    20    25    27    1
    21    27    28    1
    22    28    29    1
    23     6    10    1
    24    10    11    1
    25     3    12    1
    26    12    13   ar
    27    13    14    1
    28    13    15   ar
    29    15    16   ar
    30    16    17   ar
    31    17    18   ar
    32    18     1    1
    33    11     3    1
    34    18    12   ar
    35    28    20    1
    36    26    21    1
    37    29    23    1
    38     9    19    1
@<TRIPOS>MOLECULE
*****
 33 38 0 0 0
SMALL
GASTEIGER

@<TRIPOS>ATOM
      1 C         144.0049  142.4445  157.8616 C.3     1  UNL1        0.0279
      2 C         143.9985  142.0568  159.3107 C.3     1  UNL1        0.0089
      3 C         143.0069  142.9307  160.0200 C.3     1  UNL1        0.0227
      4 C         143.6985  141.9435  160.9128 C.3     1  UNL1        0.0257
      5 C         143.3709  141.8977  162.3759 C.3     1  UNL1        0.0953
      6 N         142.3517  142.8391  162.9461 N.am    1  UNL1       -0.2642
      7 C         142.0241  142.7932  164.4092 C.2     1  UNL1        0.3039
      8 O         141.0049  143.7346  164.9794 O.2     1  UNL1       -0.2526
      9 N         142.7157  141.8061  165.3020 N.am    1  UNL1       -0.2904
     10 C         141.6601  143.8262  162.0532 C.3     1  UNL1        0.0953
     11 C         141.9877  143.8720  160.5902 C.3     1  UNL1        0.0257
     12 C         142.4004  143.8584  159.0092 C.ar    1  UNL1       -0.0204
     13 C         141.3661  144.9380  159.1312 C.ar    1  UNL1        0.0303
     14 BR        140.7494  145.2385  160.4651 Br      1  UNL1       -0.0493
     15 C         140.9487  145.7171  157.9193 C.ar    1  UNL1        0.0064
     16 C         141.5655  145.4165  156.5854 C.ar    1  UNL1        0.0002
     17 C         142.5997  144.3370  156.4634 C.ar    1  UNL1       -0.0045
     18 C         143.0172  143.5579  157.6753 C.ar    1  UNL1       -0.0256
     19 H         143.3846  141.1883  164.9278 H       1  UNL1        0.1509
     20 C         142.3881  141.7603  166.7651 C.3     1  UNL1        0.0729
     21 C         141.1437  141.0661  167.2337 C.3     1  UNL1        0.0180
     22 C         142.0605  141.7145  168.2282 C.3     1  UNL1        0.0016
     23 C         141.7330  141.6686  169.6913 C.3     1  UNL1        0.0001
     24 C         140.4886  140.9744  170.1599 C.3     1  UNL1        0.0000
     25 C         139.5717  140.3261  169.1654 C.3     1  UNL1        0.0001
     26 C         139.8993  140.3719  167.7023 C.3     1  UNL1        0.0016
     27 C         142.0571  141.6335  167.4560 C.3     1  UNL1        0.0016
     28 C         143.3049  142.4086  167.7596 C.3     1  UNL1        0.0180
     29 C         142.9774  142.3628  169.2227 C.3     1  UNL1        0.0016
     30 C         144.8505  141.8271  156.7875 C.3     1  UNL1        0.0460
     31 O         147.1665  141.5009  155.6562 O.co2   1  UNL1       -0.5492
     32 C         146.3213  142.1163  156.7318 C.2     1  UNL1        0.0507
     33 O         146.9468  143.0210  157.7516 O.co2   1  UNL1       -0.5492
@<TRIPOS>UNITY_ATOM_ATTR
31 1
charge -1
@<TRIPOS>BOND
     1    31    32   ar
     2    32    33   ar
     3    32    30    1
     4    30     1    1
     5     1     2    1
     6     2     3    1
     7     3     4    1
     8     4     5    1
     9     5     6    1
    10     6     7   am
    11     7     8    2
    12     7     9   am
    13     9    20    1
    14    20    21    1
    15    21    22    1
    16    22    23    1
    17    23    24    1
    18    24    25    1
    19    25    26    1
    20    25    27    1
    21    27    28    1
    22    28    29    1
    23     6    10    1
    24    10    11    1
    25     3    12    1
    26    12    13   ar
    27    13    14    1
    28    13    15   ar
    29    15    16   ar
    30    16    17   ar
    31    17    18   ar
    32    18     1    1
    33    11     3    1
    34    18    12   ar
    35    28    20    1
    36    26    21    1
    37    29    23    1
    38     9    19    1
@<TRIPOS>MOLECULE
*****
 33 38 0 0 0
SMALL
GASTEIGER

@<TRIPOS>ATOM
      1 C         138.8018  141.7692  163.7010 C.3     1  UNL1        0.0279
      2 C         139.7201  142.1755  162.5866 C.3     1  UNL1        0.0089
      3 C         140.5259  140.9745  162.1888 C.3     1  UNL1        0.0227
      4 C         140.8409  142.2096  161.3982 C.3     1  UNL1        0.0257
      5 C         141.8838  142.1650  160.3211 C.3     1  UNL1        0.0953
      6 N         142.6117  140.8851  160.0344 N.am    1  UNL1       -0.2642
      7 C         143.6546  140.8404  158.9572 C.2     1  UNL1        0.3039
      8 O         144.3824  139.5606  158.6705 O.2     1  UNL1       -0.2526
      9 N         143.9696  142.0756  158.1666 N.am    1  UNL1       -0.2904
     10 C         142.2966  139.6499  160.8250 C.3     1  UNL1        0.0953
     11 C         141.2538  139.6946  161.9022 C.3     1  UNL1        0.0257
     12 C         140.1057  139.8259  163.0574 C.ar    1  UNL1       -0.0204
     13 C         140.5557  138.3963  163.1180 C.ar    1  UNL1        0.0303
     14 BR        141.6212  137.9051  162.1834 Br      1  UNL1       -0.0493
     15 C         139.9402  137.4578  164.1132 C.ar    1  UNL1        0.0064
     16 C         138.8746  137.9491  165.0478 C.ar    1  UNL1        0.0002
     17 C         138.4247  139.3786  164.9872 C.ar    1  UNL1       -0.0045
     18 C         139.0402  140.3171  163.9920 C.ar    1  UNL1       -0.0256
     19 H         143.4919  142.9156  158.3548 H       1  UNL1        0.1509
     20 C         145.0125  142.0310  157.0894 C.3     1  UNL1        0.0729
     21 C         144.6615  141.5116  155.7267 C.3     1  UNL1        0.0180
     22 C         146.0554  141.9864  156.0122 C.3     1  UNL1        0.0016
     23 C         147.0983  141.9418  154.9350 C.3     1  UNL1        0.0001
     24 C         146.7473  141.4224  153.5723 C.3     1  UNL1        0.0000
     25 C         145.3533  140.9477  153.2867 C.3     1  UNL1        0.0001
     26 C         144.3104  140.9923  154.3640 C.3     1  UNL1        0.0016
     27 C         145.3990  141.9318  156.4233 C.3     1  UNL1        0.0016
     28 C         146.4065  142.5057  157.3749 C.3     1  UNL1        0.0180
     29 C         147.4494  142.4611  156.2977 C.3     1  UNL1        0.0016
     30 C         137.8180  142.6589  164.4015 C.3     1  UNL1        0.0460
     31 O         137.5121  144.7618  162.9067 O.co2   1  UNL1       -0.5492
     32 C         137.8911  144.1462  164.2211 C.2     1  UNL1        0.0507
     33 O         138.3431  145.0179  165.3550 O.co2   1  UNL1       -0.5492
@<TRIPOS>UNITY_ATOM_ATTR
31 1
charge -1
@<TRIPOS>BOND
     1    31    32   ar
     2    32    33   ar
     3    32    30    1
     4    30     1    1
     5     1     2    1
     6     2     3    1
     7     3     4    1
     8     4     5    1
     9     5     6    1
    10     6     7   am
    11     7     8    2
    12     7     9   am
    13     9    20    1
    14    20    21    1
    15    21    22    1
    16    22    23    1
    17    23    24    1
    18    24    25    1
    19    25    26    1
    20    25    27    1
    21    27    28    1
    22    28    29    1
    23     6    10    1
    24    10    11    1
    25     3    12    1
    26    12    13   ar
    27    13    14    1
    28    13    15   ar
    29    15    16   ar
    30    16    17   ar
    31    17    18   ar
    32    18     1    1
    33    11     3    1
    34    18    12   ar
    35    28    20    1
    36    26    21    1
    37    29    23    1
    38     9    19    1
@<TRIPOS>MOLECULE
*****
 33 38 0 0 0
SMALL
GASTEIGER

@<TRIPOS>ATOM
      1 C         140.9052  142.3956  167.7823 C.3     1  UNL1        0.0279
      2 C         141.1990  142.5312  166.3176 C.3     1  UNL1        0.0089
      3 C         142.0181  141.3468  165.8976 C.3     1  UNL1        0.0227
      4 C         141.7240  142.3103  164.7862 C.3     1  UNL1        0.0257
      5 C         142.2400  142.0408  163.4038 C.3     1  UNL1        0.0953
      6 N         143.0502  140.8078  163.1328 N.am    1  UNL1       -0.2642
      7 C         143.5663  140.5383  161.7503 C.2     1  UNL1        0.3039
      8 O         144.3765  139.3053  161.4794 O.2     1  UNL1       -0.2526
      9 N         143.2721  141.5017  160.6390 N.am    1  UNL1       -0.2904
     10 C         143.3444  139.8444  164.2442 C.3     1  UNL1        0.0953
     11 C         142.8283  140.1139  165.6266 C.3     1  UNL1        0.0257
     12 C         142.2306  140.4793  167.1028 C.ar    1  UNL1       -0.0204
     13 C         142.9616  139.1829  167.2899 C.ar    1  UNL1        0.0303
     14 BR        143.6494  138.5348  166.1251 Br      1  UNL1       -0.0493
     15 C         143.0047  138.5347  168.6419 C.ar    1  UNL1        0.0064
     16 C         142.3169  139.1829  169.8067 C.ar    1  UNL1        0.0002
     17 C         141.5860  140.4793  169.6196 C.ar    1  UNL1       -0.0045
     18 C         141.5428  141.1275  168.2676 C.ar    1  UNL1       -0.0256
     19 H         142.7404  142.3110  160.8168 H       1  UNL1        0.1509
     20 C         143.7882  141.2322  159.2565 C.3     1  UNL1        0.0729
     21 C         143.2802  140.0516  158.4832 C.3     1  UNL1        0.0180
     22 C         144.3042  140.9628  157.8741 C.3     1  UNL1        0.0016
     23 C         144.8203  140.6934  156.4917 C.3     1  UNL1        0.0001
     24 C         144.3123  139.5126  155.7184 C.3     1  UNL1        0.0000
     25 C         143.2883  138.6014  156.3275 C.3     1  UNL1        0.0001
     26 C         142.7723  138.8709  157.7100 C.3     1  UNL1        0.0016
     27 C         143.9277  140.9357  158.5526 C.3     1  UNL1        0.0016
     28 C         144.8122  142.1435  158.6473 C.3     1  UNL1        0.0180
     29 C         145.3283  141.8740  157.2649 C.3     1  UNL1        0.0016
     30 C         140.1130  143.3590  168.6155 C.3     1  UNL1        0.0460
     31 O         141.8364  143.8806  170.4885 O.co2   1  UNL1       -0.5492
     32 C         140.4378  143.5367  170.0691 C.2     1  UNL1        0.0507
     33 O         139.3641  143.3706  171.1033 O.co2   1  UNL1       -0.5492
@<TRIPOS>UNITY_ATOM_ATTR
31 1
charge -1
@<TRIPOS>BOND
     1    31    32   ar
     2    32    33   ar
     3    32    30    1
     4    30     1    1
     5     1     2    1
     6     2     3    1
     7     3     4    1
     8     4     5    1
     9     5     6    1
    10     6     7   am
    11     7     8    2
    12     7     9   am
    13     9    20    1
    14    20    21    1
    15    21    22    1
    16    22    23    1
    17    23    24    1
    18    24    25    1
    19    25    26    1
    20    25    27    1
    21    27    28    1
    22    28    29    1
    23     6    10    1
    24    10    11    1
    25     3    12    1
    26    12    13   ar
    27    13    14    1
    28    13    15   ar
    29    15    16   ar
    30    16    17   ar
    31    17    18   ar
    32    18     1    1
    33    11     3    1
    34    18    12   ar
    35    28    20    1
    36    26    21    1
    37    29    23    1
    38     9    19    1
