@<TRIPOS>MOLECULE
*****
 28 31 0 0 0
SMALL
GASTEIGER

@<TRIPOS>ATOM
      1 O         144.1323  142.8918  159.4910 O.2     1  UNL1       -0.2734
      2 C         144.0698  141.7516  160.4637 C.2     1  UNL1        0.2401
      3 N         143.7185  140.3746  159.9835 N.am    1  UNL1       -0.2770
      4 C         143.6837  139.3072  161.0369 C.3     1  UNL1        0.0949
      5 C         143.3704  137.8486  160.8803 C.3     1  UNL1        0.0388
      6 C         143.0145  137.0973  159.6319 C.3     1  UNL1        0.0739
      7 N         142.8840  137.6188  158.2315 N.3     1  UNL1       -0.2725
      8 C         143.0772  139.0206  157.7338 C.3     1  UNL1        0.0938
      9 C         143.4486  140.2470  158.5136 C.3     1  UNL1        0.1107
     10 C         144.3583  141.9883  161.9165 C.3     1  UNL1        0.1355
     11 C         143.3615  142.4058  162.9567 C.3     1  UNL1        0.0700
     12 C         144.0815  142.5247  164.2673 C.3     1  UNL1        0.1834
     13 C         145.5232  142.1807  164.0370 C.3     1  UNL1        0.1130
     14 N         145.6943  141.8493  162.5841 N.3     1  UNL1       -0.2882
     15 H         146.0328  140.8922  162.4850 H       1  UNL1        0.1237
     16 O         143.4675  142.9185  165.5780 O.3     1  UNL1       -0.4777
     17 C         143.1745  141.8732  166.6131 C.ar    1  UNL1        0.1386
     18 C         142.9048  140.4582  166.1947 C.ar    1  UNL1        0.0392
     19 C         142.6119  139.4129  167.2297 C.ar    1  UNL1        0.0327
     20 C         142.5885  139.7824  168.6832 C.ar    1  UNL1        0.1403
     21 F         142.2955  138.7371  169.7183 F       1  UNL1       -0.2042
     22 C         142.8582  141.1974  169.1017 C.ar    1  UNL1        0.0327
     23 C         143.1512  142.2428  168.0666 C.ar    1  UNL1        0.0392
     24 C         142.5109  136.6045  157.1914 C.3     1  UNL1        0.0576
     25 C         141.3652  136.7090  156.2289 C.3     1  UNL1        0.0160
     26 C         141.3643  135.4767  155.3737 C.3     1  UNL1        0.0014
     27 C         142.5095  134.6105  155.8077 C.3     1  UNL1        0.0014
     28 C         143.2181  135.3076  156.9311 C.3     1  UNL1        0.0160
@<TRIPOS>BOND
     1     1     2    2
     2    10     2    1
     3    10    11    1
     4    11    12    1
     5    12    16    1
     6    16    17    1
     7    17    18   ar
     8    18    19   ar
     9    19    20   ar
    10    20    21    1
    11    20    22   ar
    12    22    23   ar
    13    12    13    1
    14    13    14    1
    15     2     3   am
    16     3     4    1
    17     4     5    1
    18     5     6    1
    19     6     7    1
    20     7    24    1
    21    24    25    1
    22    25    26    1
    23    26    27    1
    24    27    28    1
    25     7     8    1
    26     8     9    1
    27    14    10    1
    28     9     3    1
    29    23    17   ar
    30    28    24    1
    31    14    15    1
@<TRIPOS>MOLECULE
*****
 28 31 0 0 0
SMALL
GASTEIGER

@<TRIPOS>ATOM
      1 O         138.8484  139.1276  157.7818 O.2     1  UNL1       -0.2734
      2 C         140.1063  138.7100  158.4841 C.2     1  UNL1        0.2401
      3 N         140.1133  138.5444  159.9750 N.am    1  UNL1       -0.2770
      4 C         141.4214  138.1242  160.5770 C.3     1  UNL1        0.0949
      5 C         141.7505  137.8768  162.0194 C.3     1  UNL1        0.0388
      6 C         140.8529  137.9884  163.2159 C.3     1  UNL1        0.0739
      7 N         139.4044  138.3750  163.2657 N.3     1  UNL1       -0.2725
      8 C         138.4959  138.7455  162.1311 C.3     1  UNL1        0.0938
      9 C         138.8114  138.8209  160.6666 C.3     1  UNL1        0.1107
     10 C         141.3572  138.4579  157.6957 C.3     1  UNL1        0.1355
     11 C         141.8384  137.1233  157.2084 C.3     1  UNL1        0.0700
     12 C         143.1252  137.3367  156.4677 C.3     1  UNL1        0.1834
     13 C         143.4392  138.8032  156.4971 C.3     1  UNL1        0.1130
     14 N         142.3466  139.4960  157.2561 N.3     1  UNL1       -0.2882
     15 H         141.8869  140.1795  156.6544 H       1  UNL1        0.1237
     16 O         143.9526  136.2708  155.8125 O.3     1  UNL1       -0.4777
     17 C         143.5010  134.8409  155.8514 C.ar    1  UNL1        0.1386
     18 C         142.6609  134.2891  154.7380 C.ar    1  UNL1        0.0392
     19 C         142.2094  132.8593  154.7769 C.ar    1  UNL1        0.0327
     20 C         142.5979  131.9812  155.9293 C.ar    1  UNL1        0.1403
     21 F         142.1463  130.5513  155.9682 F       1  UNL1       -0.2042
     22 C         143.4379  132.5330  157.0427 C.ar    1  UNL1        0.0327
     23 C         143.8895  133.9629  157.0038 C.ar    1  UNL1        0.0392
     24 C         138.7823  138.3936  164.6304 C.3     1  UNL1        0.0576
     25 C         138.3974  137.1912  165.4404 C.3     1  UNL1        0.0160
     26 C         137.8130  137.6722  166.7354 C.3     1  UNL1        0.0014
     27 C         137.8368  139.1720  166.7258 C.3     1  UNL1        0.0014
     28 C         138.4359  139.6178  165.4249 C.3     1  UNL1        0.0160
@<TRIPOS>BOND
     1     1     2    2
     2    10     2    1
     3    10    11    1
     4    11    12    1
     5    12    16    1
     6    16    17    1
     7    17    18   ar
     8    18    19   ar
     9    19    20   ar
    10    20    21    1
    11    20    22   ar
    12    22    23   ar
    13    12    13    1
    14    13    14    1
    15     2     3   am
    16     3     4    1
    17     4     5    1
    18     5     6    1
    19     6     7    1
    20     7    24    1
    21    24    25    1
    22    25    26    1
    23    26    27    1
    24    27    28    1
    25     7     8    1
    26     8     9    1
    27    14    10    1
    28     9     3    1
    29    23    17   ar
    30    28    24    1
    31    14    15    1
@<TRIPOS>MOLECULE
*****
 28 31 0 0 0
SMALL
GASTEIGER

@<TRIPOS>ATOM
      1 O         141.2644  138.5137  163.3175 O.2     1  UNL1       -0.2734
      2 C         140.2849  139.5467  163.7903 C.2     1  UNL1        0.2401
      3 N         139.9763  140.7365  162.9306 N.am    1  UNL1       -0.2770
      4 C         138.9839  141.7086  163.4967 C.3     1  UNL1        0.0949
      5 C         138.4709  142.9812  162.8905 C.3     1  UNL1        0.0388
      6 C         138.8236  143.5959  161.5686 C.3     1  UNL1        0.0739
      7 N         139.7763  143.0901  160.5262 N.3     1  UNL1       -0.2725
      8 C         140.6117  141.8444  160.5485 C.3     1  UNL1        0.0938
      9 C         140.7006  140.7970  161.6186 C.3     1  UNL1        0.1107
     10 C         139.6142  139.3900  165.1227 C.3     1  UNL1        0.1355
     11 C         140.1283  139.9047  166.4346 C.3     1  UNL1        0.0700
     12 C         139.1435  139.5238  167.5000 C.3     1  UNL1        0.1834
     13 C         138.0208  138.7738  166.8466 C.3     1  UNL1        0.1130
     14 N         138.3117  138.6911  165.3775 N.3     1  UNL1       -0.2882
     15 H         137.5660  139.1460  164.8508 H       1  UNL1        0.1237
     16 O         139.2608  139.8379  168.9621 O.3     1  UNL1       -0.4777
     17 C         140.3252  140.7785  169.4440 C.ar    1  UNL1        0.1386
     18 C         141.6716  140.2484  169.8393 C.ar    1  UNL1        0.0392
     19 C         142.7360  141.1890  170.3212 C.ar    1  UNL1        0.0327
     20 C         142.4541  142.6597  170.4080 C.ar    1  UNL1        0.1403
     21 F         143.5185  143.6003  170.8900 F       1  UNL1       -0.2042
     22 C         141.1077  143.1898  170.0128 C.ar    1  UNL1        0.0327
     23 C         140.0433  142.2492  169.5308 C.ar    1  UNL1        0.0392
     24 C         139.9115  143.9425  159.2995 C.3     1  UNL1        0.0576
     25 C         139.5339  143.5448  157.9033 C.3     1  UNL1        0.0160
     26 C         139.8370  144.6988  156.9944 C.3     1  UNL1        0.0014
     27 C         140.4021  145.8099  157.8289 C.3     1  UNL1        0.0014
     28 C         140.4481  145.3425  159.2534 C.3     1  UNL1        0.0160
@<TRIPOS>BOND
     1     1     2    2
     2    10     2    1
     3    10    11    1
     4    11    12    1
     5    12    16    1
     6    16    17    1
     7    17    18   ar
     8    18    19   ar
     9    19    20   ar
    10    20    21    1
    11    20    22   ar
    12    22    23   ar
    13    12    13    1
    14    13    14    1
    15     2     3   am
    16     3     4    1
    17     4     5    1
    18     5     6    1
    19     6     7    1
    20     7    24    1
    21    24    25    1
    22    25    26    1
    23    26    27    1
    24    27    28    1
    25     7     8    1
    26     8     9    1
    27    14    10    1
    28     9     3    1
    29    23    17   ar
    30    28    24    1
    31    14    15    1
@<TRIPOS>MOLECULE
*****
 28 31 0 0 0
SMALL
GASTEIGER

@<TRIPOS>ATOM
      1 O         144.8427  142.8798  158.5118 O.2     1  UNL1       -0.2734
      2 C         144.4204  141.9273  159.5910 C.2     1  UNL1        0.2401
      3 N         143.9220  140.5592  159.2308 N.am    1  UNL1       -0.2770
      4 C         143.5257  139.6864  160.3847 C.3     1  UNL1        0.0949
      5 C         142.9952  138.2835  160.3571 C.3     1  UNL1        0.0388
      6 C         142.7301  137.4071  159.1691 C.3     1  UNL1        0.0739
      7 N         142.9299  137.7169  157.7151 N.3     1  UNL1       -0.2725
      8 C         143.4442  138.9798  157.0900 C.3     1  UNL1        0.0938
      9 C         143.8857  140.2447  157.7647 C.3     1  UNL1        0.1107
     10 C         144.4966  142.3430  161.0302 C.3     1  UNL1        0.1355
     11 C         143.5092  143.2131  161.7500 C.3     1  UNL1        0.0700
     12 C         143.9759  143.3694  163.1670 C.3     1  UNL1        0.1834
     13 C         145.2517  142.5961  163.3228 C.3     1  UNL1        0.1130
     14 N         145.5734  141.9617  162.0022 N.3     1  UNL1       -0.2882
     15 H         145.6046  140.9473  162.1039 H       1  UNL1        0.1237
     16 O         143.2876  144.1604  164.2398 O.3     1  UNL1       -0.4777
     17 C         141.7960  144.0913  164.3824 C.ar    1  UNL1        0.1386
     18 C         140.9226  145.0098  163.5801 C.ar    1  UNL1        0.0392
     19 C         139.4311  144.9408  163.7227 C.ar    1  UNL1        0.0327
     20 C         138.8128  143.9533  164.6675 C.ar    1  UNL1        0.1403
     21 F         137.3212  143.8843  164.8101 F       1  UNL1       -0.2042
     22 C         139.6862  143.0348  165.4697 C.ar    1  UNL1        0.0327
     23 C         141.1778  143.1039  165.3271 C.ar    1  UNL1        0.0392
     24 C         142.5675  136.6188  156.7598 C.3     1  UNL1        0.0576
     25 C         143.4472  135.4711  156.3610 C.3     1  UNL1        0.0160
     26 C         142.6852  134.6184  155.3903 C.3     1  UNL1        0.0014
     27 C         141.3344  135.2391  155.1893 C.3     1  UNL1        0.0014
     28 C         141.2617  136.4753  156.0357 C.3     1  UNL1        0.0160
@<TRIPOS>BOND
     1     1     2    2
     2    10     2    1
     3    10    11    1
     4    11    12    1
     5    12    16    1
     6    16    17    1
     7    17    18   ar
     8    18    19   ar
     9    19    20   ar
    10    20    21    1
    11    20    22   ar
    12    22    23   ar
    13    12    13    1
    14    13    14    1
    15     2     3   am
    16     3     4    1
    17     4     5    1
    18     5     6    1
    19     6     7    1
    20     7    24    1
    21    24    25    1
    22    25    26    1
    23    26    27    1
    24    27    28    1
    25     7     8    1
    26     8     9    1
    27    14    10    1
    28     9     3    1
    29    23    17   ar
    30    28    24    1
    31    14    15    1
@<TRIPOS>MOLECULE
*****
 28 31 0 0 0
SMALL
GASTEIGER

@<TRIPOS>ATOM
      1 O         138.8566  143.4504  158.9959 O.2     1  UNL1       -0.2734
      2 C         138.4856  141.9971  159.0117 C.2     1  UNL1        0.2401
      3 N         138.4748  141.2399  160.3064 N.am    1  UNL1       -0.2770
      4 C         138.0897  139.7932  160.2110 C.3     1  UNL1        0.0949
      5 C         137.9853  138.7787  161.3110 C.3     1  UNL1        0.0388
      6 C         138.2401  138.9603  162.7779 C.3     1  UNL1        0.0739
      7 N         138.6623  140.2011  163.5074 N.3     1  UNL1       -0.2725
      8 C         138.9340  141.5669  162.9499 C.3     1  UNL1        0.0938
      9 C         138.8505  142.0291  161.5253 C.3     1  UNL1        0.1107
     10 C         138.1253  141.3012  157.7327 C.3     1  UNL1        0.1355
     11 C         136.7551  141.2228  157.1273 C.3     1  UNL1        0.0700
     12 C         136.8550  140.4346  155.8550 C.3     1  UNL1        0.1834
     13 C         138.2868  140.0258  155.6741 C.3     1  UNL1        0.1130
     14 N         139.0718  140.5613  156.8346 N.3     1  UNL1       -0.2882
     15 H         139.7971  141.1951  156.4988 H       1  UNL1        0.1237
     16 O         135.7218  140.1118  154.9266 O.3     1  UNL1       -0.4777
     17 C         134.3078  140.1558  155.4253 C.ar    1  UNL1        0.1386
     18 C         133.4397  141.3391  155.1153 C.ar    1  UNL1        0.0392
     19 C         132.0258  141.3831  155.6140 C.ar    1  UNL1        0.0327
     20 C         131.4799  140.2438  156.4226 C.ar    1  UNL1        0.1403
     21 F         130.0659  140.2878  156.9213 F       1  UNL1       -0.2042
     22 C         132.3480  139.0605  156.7326 C.ar    1  UNL1        0.0327
     23 C         133.7620  139.0165  156.2338 C.ar    1  UNL1        0.0392
     24 C         138.8358  140.0572  164.9903 C.3     1  UNL1        0.0576
     25 C         139.7515  140.8728  165.8542 C.3     1  UNL1        0.0160
     26 C         139.6057  140.3921  167.2675 C.3     1  UNL1        0.0014
     27 C         138.5998  139.2793  167.2771 C.3     1  UNL1        0.0014
     28 C         138.1240  139.0723  165.8697 C.3     1  UNL1        0.0160
@<TRIPOS>BOND
     1     1     2    2
     2    10     2    1
     3    10    11    1
     4    11    12    1
     5    12    16    1
     6    16    17    1
     7    17    18   ar
     8    18    19   ar
     9    19    20   ar
    10    20    21    1
    11    20    22   ar
    12    22    23   ar
    13    12    13    1
    14    13    14    1
    15     2     3   am
    16     3     4    1
    17     4     5    1
    18     5     6    1
    19     6     7    1
    20     7    24    1
    21    24    25    1
    22    25    26    1
    23    26    27    1
    24    27    28    1
    25     7     8    1
    26     8     9    1
    27    14    10    1
    28     9     3    1
    29    23    17   ar
    30    28    24    1
    31    14    15    1
@<TRIPOS>MOLECULE
*****
 28 31 0 0 0
SMALL
GASTEIGER

@<TRIPOS>ATOM
      1 O         144.4016  139.5104  159.1870 O.2     1  UNL1       -0.2734
      2 C         143.8691  140.4360  160.2404 C.2     1  UNL1        0.2401
      3 N         143.1379  141.6837  159.8422 N.am    1  UNL1       -0.2770
      4 C         142.6470  142.5390  160.9726 C.3     1  UNL1        0.0949
      5 C         141.8912  143.8331  160.9062 C.3     1  UNL1        0.0388
      6 C         141.4398  144.5913  159.6934 C.3     1  UNL1        0.0739
      7 N         141.6326  144.2430  158.2472 N.3     1  UNL1       -0.2725
      8 C         142.3244  143.0502  157.6567 C.3     1  UNL1        0.0938
      9 C         142.9943  141.9112  158.3667 C.3     1  UNL1        0.1107
     10 C         144.0677  140.1139  161.6918 C.3     1  UNL1        0.1355
     11 C         143.1804  139.2429  162.5311 C.3     1  UNL1        0.0700
     12 C         143.7528  139.1968  163.9169 C.3     1  UNL1        0.1834
     13 C         144.9936  140.0393  163.9340 C.3     1  UNL1        0.1130
     14 N         145.1882  140.6061  162.5590 N.3     1  UNL1       -0.2882
     15 H         146.0822  140.2943  162.1794 H       1  UNL1        0.1237
     16 O         143.1840  138.4410  165.0810 O.3     1  UNL1       -0.4777
     17 C         141.7349  138.5924  165.4378 C.ar    1  UNL1        0.1386
     18 C         140.7060  137.7197  164.7822 C.ar    1  UNL1        0.0392
     19 C         139.2570  137.8710  165.1389 C.ar    1  UNL1        0.0327
     20 C         138.8368  138.8952  166.1511 C.ar    1  UNL1        0.1403
     21 F         137.3877  139.0466  166.5079 F       1  UNL1       -0.2042
     22 C         139.8657  139.7679  166.8066 C.ar    1  UNL1        0.0327
     23 C         141.3147  139.6165  166.4499 C.ar    1  UNL1        0.0392
     24 C         141.0575  145.2160  157.2611 C.3     1  UNL1        0.0576
     25 C         139.9508  146.1924  157.5288 C.3     1  UNL1        0.0160
     26 C         139.6974  146.9634  156.2673 C.3     1  UNL1        0.0014
     27 C         140.6476  146.4633  155.2198 C.3     1  UNL1        0.0014
     28 C         141.4881  145.3834  155.8340 C.3     1  UNL1        0.0160
@<TRIPOS>BOND
     1     1     2    2
     2    10     2    1
     3    10    11    1
     4    11    12    1
     5    12    16    1
     6    16    17    1
     7    17    18   ar
     8    18    19   ar
     9    19    20   ar
    10    20    21    1
    11    20    22   ar
    12    22    23   ar
    13    12    13    1
    14    13    14    1
    15     2     3   am
    16     3     4    1
    17     4     5    1
    18     5     6    1
    19     6     7    1
    20     7    24    1
    21    24    25    1
    22    25    26    1
    23    26    27    1
    24    27    28    1
    25     7     8    1
    26     8     9    1
    27    14    10    1
    28     9     3    1
    29    23    17   ar
    30    28    24    1
    31    14    15    1
@<TRIPOS>MOLECULE
*****
 28 31 0 0 0
SMALL
GASTEIGER

@<TRIPOS>ATOM
      1 O         137.6697  143.9873  162.5735 O.2     1  UNL1       -0.2734
      2 C         138.2464  142.6057  162.6653 C.2     1  UNL1        0.2401
      3 N         139.1141  142.2310  163.8302 N.am    1  UNL1       -0.2770
      4 C         139.6392  140.8259  163.8251 C.3     1  UNL1        0.0949
      5 C         140.5219  140.1537  164.8347 C.3     1  UNL1        0.0388
      6 C         141.0973  140.7206  166.0985 C.3     1  UNL1        0.0739
      7 N         140.9323  142.0997  166.6651 N.3     1  UNL1       -0.2725
      8 C         140.1510  143.2525  166.1077 C.3     1  UNL1        0.0938
      9 C         139.3419  143.3109  164.8459 C.3     1  UNL1        0.1107
     10 C         137.9556  141.5987  161.5923 C.3     1  UNL1        0.1355
     11 C         138.3838  141.6905  160.1576 C.3     1  UNL1        0.0700
     12 C         137.8783  140.4716  159.4442 C.3     1  UNL1        0.1834
     13 C         137.1377  139.6267  160.4379 C.3     1  UNL1        0.1130
     14 N         137.1855  140.3232  161.7655 N.3     1  UNL1       -0.2882
     15 H         137.6502  139.7287  162.4517 H       1  UNL1        0.1237
     16 O         138.0783  140.1537  157.9919 O.3     1  UNL1       -0.4777
     17 C         137.7048  141.1612  156.9452 C.ar    1  UNL1        0.1386
     18 C         136.3392  141.1277  156.3255 C.ar    1  UNL1        0.0392
     19 C         135.9658  142.1351  155.2789 C.ar    1  UNL1        0.0327
     20 C         136.9578  143.1760  154.8519 C.ar    1  UNL1        0.1403
     21 F         136.5844  144.1834  153.8052 F       1  UNL1       -0.2042
     22 C         138.3234  143.2094  155.4716 C.ar    1  UNL1        0.0327
     23 C         138.6969  142.2020  156.5183 C.ar    1  UNL1        0.0392
     24 C         141.6424  142.3605  167.9603 C.3     1  UNL1        0.0576
     25 C         143.0809  142.0539  168.2545 C.3     1  UNL1        0.0160
     26 C         143.3663  142.4775  169.6648 C.3     1  UNL1        0.0014
     27 C         142.1040  143.0460  170.2424 C.3     1  UNL1        0.0014
     28 C         141.0386  142.9736  169.1890 C.3     1  UNL1        0.0160
@<TRIPOS>BOND
     1     1     2    2
     2    10     2    1
     3    10    11    1
     4    11    12    1
     5    12    16    1
     6    16    17    1
     7    17    18   ar
     8    18    19   ar
     9    19    20   ar
    10    20    21    1
    11    20    22   ar
    12    22    23   ar
    13    12    13    1
    14    13    14    1
    15     2     3   am
    16     3     4    1
    17     4     5    1
    18     5     6    1
    19     6     7    1
    20     7    24    1
    21    24    25    1
    22    25    26    1
    23    26    27    1
    24    27    28    1
    25     7     8    1
    26     8     9    1
    27    14    10    1
    28     9     3    1
    29    23    17   ar
    30    28    24    1
    31    14    15    1
@<TRIPOS>MOLECULE
*****
 28 31 0 0 0
SMALL
GASTEIGER

@<TRIPOS>ATOM
      1 O         138.6731  137.6541  162.7754 O.2     1  UNL1       -0.2734
      2 C         140.0336  138.2834  162.8309 C.2     1  UNL1        0.2401
      3 N         140.4146  139.1443  163.9987 N.am    1  UNL1       -0.2770
      4 C         141.7972  139.7246  163.9557 C.3     1  UNL1        0.0949
      5 C         142.4693  140.6150  164.9584 C.3     1  UNL1        0.0388
      6 C         141.9249  141.1449  166.2517 C.3     1  UNL1        0.0739
      7 N         140.5739  140.9154  166.8618 N.3     1  UNL1       -0.2725
      8 C         139.4337  140.0993  166.3292 C.3     1  UNL1        0.0938
      9 C         139.3628  139.3110  165.0550 C.3     1  UNL1        0.1107
     10 C         141.0130  138.0517  161.7188 C.3     1  UNL1        0.1355
     11 C         140.8607  138.5128  160.2995 C.3     1  UNL1        0.0700
     12 C         142.0703  138.0644  159.5341 C.3     1  UNL1        0.1834
     13 C         142.9701  137.3262  160.4803 C.3     1  UNL1        0.1130
     14 N         142.3167  137.3184  161.8304 N.3     1  UNL1       -0.2882
     15 H         142.9189  137.7843  162.5091 H       1  UNL1        0.1237
     16 O         142.3338  138.3109  158.0781 O.3     1  UNL1       -0.4777
     17 C         142.0329  137.2418  157.0699 C.ar    1  UNL1        0.1386
     18 C         143.0143  136.1311  156.8390 C.ar    1  UNL1        0.0392
     19 C         142.7135  135.0620  155.8309 C.ar    1  UNL1        0.0327
     20 C         141.4312  135.1034  155.0536 C.ar    1  UNL1        0.1403
     21 F         141.1303  134.0343  154.0455 F       1  UNL1       -0.2042
     22 C         140.4498  136.2141  155.2846 C.ar    1  UNL1        0.0327
     23 C         140.7507  137.2832  156.2927 C.ar    1  UNL1        0.0392
     24 C         140.3311  141.5915  168.1786 C.3     1  UNL1        0.0576
     25 C         140.6317  143.0249  168.5025 C.3     1  UNL1        0.0160
     26 C         140.2314  143.2722  169.9268 C.3     1  UNL1        0.0014
     27 C         139.6834  141.9915  170.4832 C.3     1  UNL1        0.0014
     28 C         139.7450  140.9528  169.4028 C.3     1  UNL1        0.0160
@<TRIPOS>BOND
     1     1     2    2
     2    10     2    1
     3    10    11    1
     4    11    12    1
     5    12    16    1
     6    16    17    1
     7    17    18   ar
     8    18    19   ar
     9    19    20   ar
    10    20    21    1
    11    20    22   ar
    12    22    23   ar
    13    12    13    1
    14    13    14    1
    15     2     3   am
    16     3     4    1
    17     4     5    1
    18     5     6    1
    19     6     7    1
    20     7    24    1
    21    24    25    1
    22    25    26    1
    23    26    27    1
    24    27    28    1
    25     7     8    1
    26     8     9    1
    27    14    10    1
    28     9     3    1
    29    23    17   ar
    30    28    24    1
    31    14    15    1
@<TRIPOS>MOLECULE
*****
 28 31 0 0 0
SMALL
GASTEIGER

@<TRIPOS>ATOM
      1 O         137.6228  143.9396  162.6312 O.2     1  UNL1       -0.2734
      2 C         138.2982  142.6010  162.6768 C.2     1  UNL1        0.2401
      3 N         139.1853  142.2476  163.8336 N.am    1  UNL1       -0.2770
      4 C         139.8114  140.8855  163.7812 C.3     1  UNL1        0.0949
      5 C         140.7358  140.2424  164.7721 C.3     1  UNL1        0.0388
      6 C         141.2625  140.8025  166.0600 C.3     1  UNL1        0.0739
      7 N         140.9948  142.1441  166.6752 N.3     1  UNL1       -0.2725
      8 C         140.1344  143.2569  166.1544 C.3     1  UNL1        0.0938
      9 C         139.3291  143.3029  164.8897 C.3     1  UNL1        0.1107
     10 C         138.0865  141.6159  161.5657 C.3     1  UNL1        0.1355
     11 C         138.7585  141.6413  160.2249 C.3     1  UNL1        0.0700
     12 C         138.2529  140.4734  159.4308 C.3     1  UNL1        0.1834
     13 C         137.2685  139.7263  160.2808 C.3     1  UNL1        0.1130
     14 N         137.1656  140.4323  161.6002 N.3     1  UNL1       -0.2882
     15 H         137.4410  139.8013  162.3528 H       1  UNL1        0.1237
     16 O         138.6603  140.1156  158.0321 O.3     1  UNL1       -0.4777
     17 C         139.8195  139.1920  157.8017 C.ar    1  UNL1        0.1386
     18 C         141.1137  139.4176  158.5258 C.ar    1  UNL1        0.0392
     19 C         142.2728  138.4940  158.2954 C.ar    1  UNL1        0.0327
     20 C         142.1380  137.3448  157.3409 C.ar    1  UNL1        0.1403
     21 F         143.2972  136.4211  157.1105 F       1  UNL1       -0.2042
     22 C         140.8438  137.1192  156.6168 C.ar    1  UNL1        0.0327
     23 C         139.6846  138.0428  156.8473 C.ar    1  UNL1        0.0392
     24 C         141.6779  142.4078  167.9843 C.3     1  UNL1        0.0576
     25 C         141.0509  143.0305  169.1964 C.3     1  UNL1        0.0160
     26 C         142.0934  143.1026  170.2724 C.3     1  UNL1        0.0014
     27 C         143.3649  142.5245  169.7253 C.3     1  UNL1        0.0014
     28 C         143.1081  142.0951  168.3112 C.3     1  UNL1        0.0160
@<TRIPOS>BOND
     1     1     2    2
     2    10     2    1
     3    10    11    1
     4    11    12    1
     5    12    16    1
     6    16    17    1
     7    17    18   ar
     8    18    19   ar
     9    19    20   ar
    10    20    21    1
    11    20    22   ar
    12    22    23   ar
    13    12    13    1
    14    13    14    1
    15     2     3   am
    16     3     4    1
    17     4     5    1
    18     5     6    1
    19     6     7    1
    20     7    24    1
    21    24    25    1
    22    25    26    1
    23    26    27    1
    24    27    28    1
    25     7     8    1
    26     8     9    1
    27    14    10    1
    28     9     3    1
    29    23    17   ar
    30    28    24    1
    31    14    15    1
