@<TRIPOS>MOLECULE
*****
 44 49 0 0 0
SMALL
GASTEIGER

@<TRIPOS>ATOM
      1 N         138.5636  142.1836  158.0764 N.am    1  UNL1       -0.2222
      2 C         138.4933  141.5342  159.4268 C.2     1  UNL1        0.3219
      3 O         137.8627  140.2087  159.7359 O.2     1  UNL1       -0.2512
      4 N         139.1643  142.4430  160.4137 N.am    1  UNL1       -0.1907
      5 C         139.6492  143.6540  159.6733 C.2     1  UNL1        0.2529
      6 O         140.3775  144.8206  160.2722 O.2     1  UNL1       -0.2724
      7 C         139.2780  143.4937  158.2288 C.3     1  UNL1        0.1391
      8 C         138.8429  143.1958  156.8245 C.3     1  UNL1        0.0449
      9 C         139.1349  144.1738  155.7254 C.3     1  UNL1        0.0746
     10 N         139.8619  145.4499  156.0305 N.3     1  UNL1       -0.2676
     11 C         140.2970  145.7479  157.4347 C.3     1  UNL1        0.0746
     12 C         140.0050  144.7698  158.5339 C.3     1  UNL1        0.0449
     13 C         136.0373  141.3083  155.1436 C.ar    1  UNL1        0.2293
     14 C         136.5852  141.8704  156.4218 C.ar    1  UNL1        0.0924
     15 C         138.0157  141.6215  156.7982 C.ar    1  UNL1        0.1453
     16 N         138.8983  140.8106  155.8963 N.ar    1  UNL1       -0.2084
     17 C         138.3505  140.2486  154.6181 C.ar    1  UNL1        0.2027
     18 N         136.9199  140.4974  154.2417 N.ar    1  UNL1       -0.1892
     19 C         133.5008  140.9987  155.6128 C.3     1  UNL1        0.2542
     20 O         134.6068  141.5571  154.7672 O.3     1  UNL1       -0.4560
     21 C         139.3224  142.1859  161.8829 C.ar    1  UNL1        0.0622
     22 C         140.6013  141.6051  162.4093 C.ar    1  UNL1        0.0154
     23 C         140.7595  141.3480  163.8786 C.ar    1  UNL1        0.0014
     24 C         139.6388  141.6717  164.8216 C.ar    1  UNL1        0.0022
     25 C         138.3598  142.2526  164.2952 C.ar    1  UNL1        0.0014
     26 C         138.2017  142.5096  162.8259 C.ar    1  UNL1        0.0154
     27 C         139.7970  141.4146  166.2909 C.ar    1  UNL1        0.0275
     28 C         140.4426  142.4464  167.1676 C.ar    1  UNL1        0.0023
     29 C         140.6008  142.1893  168.6369 C.ar    1  UNL1        0.0013
     30 C         140.1133  140.9003  169.2294 C.ar    1  UNL1        0.0162
     31 C         139.4677  139.8686  168.3528 C.ar    1  UNL1        0.0308
     32 C         139.3095  140.1256  166.8835 C.ar    1  UNL1        0.1401
     33 F         138.6640  139.0939  166.0068 F       1  UNL1       -0.2042
     34 C         140.2715  140.6432  170.6988 C.2     1  UNL1        0.0729
     35 O         141.1425  141.5401  171.5276 O.co2   1  UNL1       -0.5446
     36 O         139.5587  139.4891  171.3392 O.co2   1  UNL1       -0.5446
     37 C         140.1538  146.4280  154.9313 C.3     1  UNL1        0.1183
     38 C         139.6734  147.8447  155.0409 C.ar    1  UNL1        0.0712
     39 N         138.8359  148.2642  156.2124 N.ar    1  UNL1       -0.2471
     40 C         138.3555  149.6810  156.3220 C.ar    1  UNL1        0.0985
     41 C         138.7126  150.6783  155.2600 C.ar    1  UNL1        0.0203
     42 C         139.5502  150.2588  154.0884 C.ar    1  UNL1       -0.0015
     43 C         140.0306  148.8421  153.9788 C.ar    1  UNL1       -0.0069
     44 C         140.8681  148.4226  152.8073 C.3     1  UNL1        0.0323
@<TRIPOS>UNITY_ATOM_ATTR
35 1
charge -1
@<TRIPOS>BOND
     1    19    20    1
     2    20    13    1
     3    13    14   ar
     4    14    15   ar
     5    15     1    1
     6     1     2   am
     7     2     3    2
     8     2     4   am
     9     4    21    1
    10    21    22   ar
    11    22    23   ar
    12    23    24   ar
    13    24    27    1
    14    27    28   ar
    15    28    29   ar
    16    29    30   ar
    17    30    34    1
    18    34    35   ar
    19    34    36   ar
    20    30    31   ar
    21    31    32   ar
    22    32    33    1
    23    24    25   ar
    24    25    26   ar
    25     4     5   am
    26     5     6    2
    27     5     7    1
    28     7     8    1
    29     8     9    1
    30     9    10    1
    31    10    37    1
    32    37    38    1
    33    38    39   ar
    34    39    40   ar
    35    40    41   ar
    36    41    42   ar
    37    42    43   ar
    38    43    44    1
    39    10    11    1
    40    11    12    1
    41    15    16   ar
    42    16    17   ar
    43    17    18   ar
    44    18    13   ar
    45     7     1    1
    46    43    38   ar
    47    26    21   ar
    48    12     7    1
    49    32    27   ar
@<TRIPOS>MOLECULE
*****
 44 49 0 0 0
SMALL
GASTEIGER

@<TRIPOS>ATOM
      1 N         138.6361  141.1496  158.6388 N.am    1  UNL1       -0.2222
      2 C         138.6452  141.7203  160.0261 C.2     1  UNL1        0.3219
      3 O         137.6966  142.7515  160.5615 O.2     1  UNL1       -0.2512
      4 N         139.7697  141.0788  160.7838 N.am    1  UNL1       -0.1907
      5 C         140.4554  140.1116  159.8650 C.2     1  UNL1        0.2529
      6 O         141.6347  139.2516  160.2109 O.2     1  UNL1       -0.2724
      7 C         139.7548  140.1553  158.5393 C.3     1  UNL1        0.1391
      8 C         138.9589  140.3066  157.2769 C.3     1  UNL1        0.0449
      9 C         139.3146  139.4981  156.0646 C.3     1  UNL1        0.0746
     10 N         140.4663  138.5383  156.1147 N.3     1  UNL1       -0.2676
     11 C         141.2622  138.3870  157.3770 C.3     1  UNL1        0.0746
     12 C         140.9065  139.1955  158.5893 C.3     1  UNL1        0.0449
     13 C         136.9227  143.1259  155.6541 C.ar    1  UNL1        0.2293
     14 C         137.8822  142.7656  156.7494 C.ar    1  UNL1        0.0924
     15 C         137.6766  141.5098  157.5436 C.ar    1  UNL1        0.1453
     16 N         136.5115  140.6143  157.2424 N.ar    1  UNL1       -0.2084
     17 C         135.5521  140.9745  156.1472 C.ar    1  UNL1        0.2027
     18 N         135.7577  142.2303  155.3530 N.ar    1  UNL1       -0.1892
     19 C         138.1675  145.3762  155.2851 C.3     1  UNL1        0.2542
     20 O         137.1283  144.3816  154.8599 O.3     1  UNL1       -0.4560
     21 C         140.1428  141.3558  162.2099 C.ar    1  UNL1        0.0622
     22 C         139.6908  140.4269  163.2974 C.ar    1  UNL1        0.0154
     23 C         140.0640  140.7039  164.7236 C.ar    1  UNL1        0.0014
     24 C         140.8892  141.9099  165.0623 C.ar    1  UNL1        0.0022
     25 C         141.3412  142.8389  163.9747 C.ar    1  UNL1        0.0014
     26 C         140.9680  142.5618  162.5486 C.ar    1  UNL1        0.0154
     27 C         141.2623  142.1870  166.4885 C.ar    1  UNL1        0.0275
     28 C         140.2755  142.8430  167.4081 C.ar    1  UNL1        0.0023
     29 C         140.6486  143.1201  168.8343 C.ar    1  UNL1        0.0013
     30 C         142.0087  142.7410  169.3408 C.ar    1  UNL1        0.0162
     31 C         142.9956  142.0850  168.4212 C.ar    1  UNL1        0.0308
     32 C         142.6224  141.8079  166.9951 C.ar    1  UNL1        0.1401
     33 F         143.6093  141.1518  166.0755 F       1  UNL1       -0.2042
     34 C         142.3819  143.0181  170.7670 C.2     1  UNL1        0.0729
     35 O         141.6978  142.2787  171.8784 O.co2   1  UNL1       -0.5446
     36 O         143.4392  144.0346  171.0817 O.co2   1  UNL1       -0.5446
     37 C         140.8220  137.7297  154.9023 C.3     1  UNL1        0.1183
     38 C         141.6013  136.4569  155.0518 C.ar    1  UNL1        0.0712
     39 N         140.8815  135.1461  155.1690 N.ar    1  UNL1       -0.2471
     40 C         141.6609  133.8732  155.3185 C.ar    1  UNL1        0.0985
     41 C         143.1600  133.9111  155.3510 C.ar    1  UNL1        0.0203
     42 C         143.8798  135.2219  155.2339 C.ar    1  UNL1       -0.0015
     43 C         143.1005  136.4948  155.0843 C.ar    1  UNL1       -0.0069
     44 C         143.8203  137.8055  154.9672 C.3     1  UNL1        0.0323
@<TRIPOS>UNITY_ATOM_ATTR
35 1
charge -1
@<TRIPOS>BOND
     1    19    20    1
     2    20    13    1
     3    13    14   ar
     4    14    15   ar
     5    15     1    1
     6     1     2   am
     7     2     3    2
     8     2     4   am
     9     4    21    1
    10    21    22   ar
    11    22    23   ar
    12    23    24   ar
    13    24    27    1
    14    27    28   ar
    15    28    29   ar
    16    29    30   ar
    17    30    34    1
    18    34    35   ar
    19    34    36   ar
    20    30    31   ar
    21    31    32   ar
    22    32    33    1
    23    24    25   ar
    24    25    26   ar
    25     4     5   am
    26     5     6    2
    27     5     7    1
    28     7     8    1
    29     8     9    1
    30     9    10    1
    31    10    37    1
    32    37    38    1
    33    38    39   ar
    34    39    40   ar
    35    40    41   ar
    36    41    42   ar
    37    42    43   ar
    38    43    44    1
    39    10    11    1
    40    11    12    1
    41    15    16   ar
    42    16    17   ar
    43    17    18   ar
    44    18    13   ar
    45     7     1    1
    46    43    38   ar
    47    26    21   ar
    48    12     7    1
    49    32    27   ar
@<TRIPOS>MOLECULE
*****
 44 49 0 0 0
SMALL
GASTEIGER

@<TRIPOS>ATOM
      1 N         143.6862  141.0293  158.4677 N.am    1  UNL1       -0.2222
      2 C         143.4532  141.6773  159.8003 C.2     1  UNL1        0.3219
      3 O         143.7442  143.1070  160.1485 O.2     1  UNL1       -0.2512
      4 N         142.8779  140.6445  160.7237 N.am    1  UNL1       -0.1907
      5 C         142.7555  139.3583  159.9617 C.2     1  UNL1        0.2529
      6 O         142.2264  138.0618  160.4995 O.2     1  UNL1       -0.2724
      7 C         143.2551  139.5961  158.5674 C.3     1  UNL1        0.1391
      8 C         143.7823  139.9820  157.2172 C.3     1  UNL1        0.0449
      9 C         143.8405  138.9652  156.1161 C.3     1  UNL1        0.0746
     10 N         143.3714  137.5623  156.3651 N.3     1  UNL1       -0.2676
     11 C         142.8441  137.1764  157.7153 C.3     1  UNL1        0.0746
     12 C         142.7860  138.1932  158.8164 C.3     1  UNL1        0.0449
     13 C         146.3012  142.4180  155.8251 C.ar    1  UNL1        0.2293
     14 C         145.7362  141.7500  157.0435 C.ar    1  UNL1        0.0924
     15 C         144.2513  141.6973  157.2493 C.ar    1  UNL1        0.1453
     16 N         143.3315  142.3126  156.2367 N.ar    1  UNL1       -0.2084
     17 C         143.8964  142.9806  155.0183 C.ar    1  UNL1        0.2027
     18 N         145.3814  143.0333  154.8125 N.ar    1  UNL1       -0.1892
     19 C         148.3644  142.2111  154.2598 C.3     1  UNL1        0.2542
     20 O         147.7861  142.4708  155.6193 O.3     1  UNL1       -0.4560
     21 C         142.4927  140.8601  162.1572 C.ar    1  UNL1        0.0622
     22 C         143.5523  141.1101  163.1890 C.ar    1  UNL1        0.0154
     23 C         143.1671  141.3257  164.6226 C.ar    1  UNL1        0.0014
     24 C         141.7224  141.2913  165.0243 C.ar    1  UNL1        0.0022
     25 C         140.6627  141.0413  163.9925 C.ar    1  UNL1        0.0014
     26 C         141.0480  140.8257  162.5589 C.ar    1  UNL1        0.0154
     27 C         141.3372  141.5069  166.4579 C.ar    1  UNL1        0.0275
     28 C         140.7478  142.8177  166.8872 C.ar    1  UNL1        0.0023
     29 C         140.3626  143.0334  168.3208 C.ar    1  UNL1        0.0013
     30 C         140.5668  141.9380  169.3250 C.ar    1  UNL1        0.0162
     31 C         141.1562  140.6271  168.8958 C.ar    1  UNL1        0.0308
     32 C         141.5414  140.4115  167.4623 C.ar    1  UNL1        0.1401
     33 F         142.1307  139.1007  167.0331 F       1  UNL1       -0.2042
     34 C         140.1816  142.1536  170.7586 C.2     1  UNL1        0.0729
     35 O         140.7139  141.2412  171.8236 O.co2   1  UNL1       -0.5446
     36 O         139.2641  143.2817  171.1272 O.co2   1  UNL1       -0.5446
     37 C         143.4296  136.5455  155.2639 C.3     1  UNL1        0.1183
     38 C         143.0473  135.1211  155.5373 C.ar    1  UNL1        0.0712
     39 N         143.9773  134.2290  156.3049 N.ar    1  UNL1       -0.2471
     40 C         143.5950  132.8045  156.5784 C.ar    1  UNL1        0.0985
     41 C         142.2825  132.2722  156.0843 C.ar    1  UNL1        0.0203
     42 C         141.3525  133.1642  155.3168 C.ar    1  UNL1       -0.0015
     43 C         141.7348  134.5886  155.0433 C.ar    1  UNL1       -0.0069
     44 C         140.8047  135.4807  154.2757 C.3     1  UNL1        0.0323
@<TRIPOS>UNITY_ATOM_ATTR
35 1
charge -1
@<TRIPOS>BOND
     1    19    20    1
     2    20    13    1
     3    13    14   ar
     4    14    15   ar
     5    15     1    1
     6     1     2   am
     7     2     3    2
     8     2     4   am
     9     4    21    1
    10    21    22   ar
    11    22    23   ar
    12    23    24   ar
    13    24    27    1
    14    27    28   ar
    15    28    29   ar
    16    29    30   ar
    17    30    34    1
    18    34    35   ar
    19    34    36   ar
    20    30    31   ar
    21    31    32   ar
    22    32    33    1
    23    24    25   ar
    24    25    26   ar
    25     4     5   am
    26     5     6    2
    27     5     7    1
    28     7     8    1
    29     8     9    1
    30     9    10    1
    31    10    37    1
    32    37    38    1
    33    38    39   ar
    34    39    40   ar
    35    40    41   ar
    36    41    42   ar
    37    42    43   ar
    38    43    44    1
    39    10    11    1
    40    11    12    1
    41    15    16   ar
    42    16    17   ar
    43    17    18   ar
    44    18    13   ar
    45     7     1    1
    46    43    38   ar
    47    26    21   ar
    48    12     7    1
    49    32    27   ar
@<TRIPOS>MOLECULE
*****
 44 49 0 0 0
SMALL
GASTEIGER

@<TRIPOS>ATOM
      1 N         139.7252  140.4911  157.1962 N.am    1  UNL1       -0.2222
      2 C         139.8256  141.7127  156.3315 C.2     1  UNL1        0.3219
      3 O         140.2867  141.7475  154.9046 O.2     1  UNL1       -0.2512
      4 N         139.3838  142.8935  157.1444 N.am    1  UNL1       -0.1907
      5 C         139.0105  142.4016  158.5114 C.2     1  UNL1        0.2529
      6 O         138.5134  143.2461  159.6470 O.2     1  UNL1       -0.2724
      7 C         139.2215  140.9168  158.5434 C.3     1  UNL1        0.1391
      8 C         139.4795  139.4439  158.4261 C.3     1  UNL1        0.0449
      9 C         139.2305  138.5431  159.5993 C.3     1  UNL1        0.0746
     10 N         138.7234  139.1152  160.8899 N.3     1  UNL1       -0.2676
     11 C         138.4653  140.5882  161.0072 C.3     1  UNL1        0.0746
     12 C         138.7144  141.4890  159.8340 C.3     1  UNL1        0.0449
     13 C         141.7971  137.1593  156.5992 C.ar    1  UNL1        0.2293
     14 C         141.4540  138.5607  157.0097 C.ar    1  UNL1        0.0924
     15 C         140.0684  139.0897  156.7857 C.ar    1  UNL1        0.1453
     16 N         139.0260  138.2175  156.1512 N.ar    1  UNL1       -0.2084
     17 C         139.3690  136.8162  155.7407 C.ar    1  UNL1        0.2027
     18 N         140.7547  136.2871  155.9647 N.ar    1  UNL1       -0.1892
     19 C         143.8869  135.8850  155.7282 C.3     1  UNL1        0.2542
     20 O         143.1827  136.6302  156.8231 O.3     1  UNL1       -0.4560
     21 C         139.3257  144.3162  156.6730 C.ar    1  UNL1        0.0622
     22 C         140.2115  145.3512  157.3009 C.ar    1  UNL1        0.0154
     23 C         140.1533  146.7740  156.8295 C.ar    1  UNL1        0.0014
     24 C         139.2093  147.1619  155.7302 C.ar    1  UNL1        0.0022
     25 C         138.3235  146.1269  155.1023 C.ar    1  UNL1        0.0014
     26 C         138.3817  144.7041  155.5737 C.ar    1  UNL1        0.0154
     27 C         139.1512  148.5847  155.2588 C.ar    1  UNL1        0.0275
     28 C         139.7168  148.9549  153.9199 C.ar    1  UNL1        0.0023
     29 C         139.6587  150.3778  153.4485 C.ar    1  UNL1        0.0013
     30 C         139.0348  151.4303  154.3162 C.ar    1  UNL1        0.0162
     31 C         138.4691  151.0601  155.6552 C.ar    1  UNL1        0.0308
     32 C         138.5272  149.6374  156.1265 C.ar    1  UNL1        0.1401
     33 F         137.9616  149.2672  157.4655 F       1  UNL1       -0.2042
     34 C         138.9766  152.8532  153.8448 C.2     1  UNL1        0.0729
     35 O         137.8268  153.3172  153.0006 O.co2   1  UNL1       -0.5446
     36 O         140.0683  153.8120  154.2176 O.co2   1  UNL1       -0.5446
     37 C         138.4743  138.2143  162.0631 C.3     1  UNL1        0.1183
     38 C         138.9870  138.5924  163.4211 C.ar    1  UNL1        0.0712
     39 N         138.1179  139.3762  164.3594 N.ar    1  UNL1       -0.2471
     40 C         138.6306  139.7542  165.7175 C.ar    1  UNL1        0.0985
     41 C         140.0123  139.3485  166.1372 C.ar    1  UNL1        0.0203
     42 C         140.8814  138.5648  165.1989 C.ar    1  UNL1       -0.0015
     43 C         140.3688  138.1867  163.8409 C.ar    1  UNL1       -0.0069
     44 C         141.2379  137.4029  162.9026 C.3     1  UNL1        0.0323
@<TRIPOS>UNITY_ATOM_ATTR
35 1
charge -1
@<TRIPOS>BOND
     1    19    20    1
     2    20    13    1
     3    13    14   ar
     4    14    15   ar
     5    15     1    1
     6     1     2   am
     7     2     3    2
     8     2     4   am
     9     4    21    1
    10    21    22   ar
    11    22    23   ar
    12    23    24   ar
    13    24    27    1
    14    27    28   ar
    15    28    29   ar
    16    29    30   ar
    17    30    34    1
    18    34    35   ar
    19    34    36   ar
    20    30    31   ar
    21    31    32   ar
    22    32    33    1
    23    24    25   ar
    24    25    26   ar
    25     4     5   am
    26     5     6    2
    27     5     7    1
    28     7     8    1
    29     8     9    1
    30     9    10    1
    31    10    37    1
    32    37    38    1
    33    38    39   ar
    34    39    40   ar
    35    40    41   ar
    36    41    42   ar
    37    42    43   ar
    38    43    44    1
    39    10    11    1
    40    11    12    1
    41    15    16   ar
    42    16    17   ar
    43    17    18   ar
    44    18    13   ar
    45     7     1    1
    46    43    38   ar
    47    26    21   ar
    48    12     7    1
    49    32    27   ar
@<TRIPOS>MOLECULE
*****
 44 49 0 0 0
SMALL
GASTEIGER

@<TRIPOS>ATOM
      1 N         142.1898  138.6382  158.5421 N.am    1  UNL1       -0.2222
      2 C         142.6913  138.8703  159.9367 C.2     1  UNL1        0.3219
      3 O         144.0009  138.3956  160.4931 O.2     1  UNL1       -0.2512
      4 N         141.6532  139.6604  160.6771 N.am    1  UNL1       -0.1907
      5 C         140.5101  139.9166  159.7402 C.2     1  UNL1        0.2529
      6 O         139.2557  140.6719  160.0655 O.2     1  UNL1       -0.2724
      7 C         140.8417  139.2848  158.4207 C.3     1  UNL1        0.1391
      8 C         141.3084  138.6070  157.1666 C.3     1  UNL1        0.0449
      9 C         140.4439  138.6197  155.9410 C.3     1  UNL1        0.0746
     10 N         139.1126  139.3102  155.9693 N.3     1  UNL1       -0.2676
     11 C         138.6459  139.9881  157.2234 C.3     1  UNL1        0.0746
     12 C         139.5105  139.9754  158.4490 C.3     1  UNL1        0.0449
     13 C         143.5214  135.6493  156.2965 C.ar    1  UNL1        0.2293
     14 C         142.8013  136.3968  157.3794 C.ar    1  UNL1        0.0924
     15 C         142.9098  137.8907  157.4592 C.ar    1  UNL1        0.1453
     16 N         143.7385  138.6371  156.4561 N.ar    1  UNL1       -0.2084
     17 C         144.4585  137.8897  155.3732 C.ar    1  UNL1        0.2027
     18 N         144.3500  136.3957  155.2934 N.ar    1  UNL1       -0.1892
     19 C         143.7969  133.3115  157.3958 C.3     1  UNL1        0.2542
     20 O         143.4129  134.1554  156.2166 O.3     1  UNL1       -0.4560
     21 C         141.7425  140.1145  162.1038 C.ar    1  UNL1        0.0622
     22 C         141.8112  141.5788  162.4219 C.ar    1  UNL1        0.0154
     23 C         141.9005  142.0329  163.8488 C.ar    1  UNL1        0.0014
     24 C         141.9210  141.0228  164.9575 C.ar    1  UNL1        0.0022
     25 C         141.8522  139.5585  164.6394 C.ar    1  UNL1        0.0014
     26 C         141.7629  139.1044  163.2126 C.ar    1  UNL1        0.0154
     27 C         142.0103  141.4770  166.3843 C.ar    1  UNL1        0.0275
     28 C         143.3141  141.9772  166.9320 C.ar    1  UNL1        0.0023
     29 C         143.4034  142.4314  168.3588 C.ar    1  UNL1        0.0013
     30 C         142.1888  142.3852  169.2379 C.ar    1  UNL1        0.0162
     31 C         140.8851  141.8849  168.6902 C.ar    1  UNL1        0.0308
     32 C         140.7958  141.4308  167.2635 C.ar    1  UNL1        0.1401
     33 F         139.4920  140.9306  166.7158 F       1  UNL1       -0.2042
     34 C         142.2781  142.8393  170.6647 C.2     1  UNL1        0.0729
     35 O         143.2499  143.9150  171.0500 O.co2   1  UNL1       -0.5446
     36 O         141.3955  142.2177  171.7063 O.co2   1  UNL1       -0.5446
     37 C         138.2480  139.3229  154.7436 C.3     1  UNL1        0.1183
     38 C         136.8692  139.9104  154.8044 C.ar    1  UNL1        0.0712
     39 N         135.7083  139.0575  155.2223 N.ar    1  UNL1       -0.2471
     40 C         134.3294  139.6450  155.2831 C.ar    1  UNL1        0.0985
     41 C         134.1116  141.0855  154.9259 C.ar    1  UNL1        0.0203
     42 C         135.2725  141.9384  154.5079 C.ar    1  UNL1       -0.0015
     43 C         136.6513  141.3509  154.4472 C.ar    1  UNL1       -0.0069
     44 C         137.8122  142.2038  154.0292 C.3     1  UNL1        0.0323
@<TRIPOS>UNITY_ATOM_ATTR
35 1
charge -1
@<TRIPOS>BOND
     1    19    20    1
     2    20    13    1
     3    13    14   ar
     4    14    15   ar
     5    15     1    1
     6     1     2   am
     7     2     3    2
     8     2     4   am
     9     4    21    1
    10    21    22   ar
    11    22    23   ar
    12    23    24   ar
    13    24    27    1
    14    27    28   ar
    15    28    29   ar
    16    29    30   ar
    17    30    34    1
    18    34    35   ar
    19    34    36   ar
    20    30    31   ar
    21    31    32   ar
    22    32    33    1
    23    24    25   ar
    24    25    26   ar
    25     4     5   am
    26     5     6    2
    27     5     7    1
    28     7     8    1
    29     8     9    1
    30     9    10    1
    31    10    37    1
    32    37    38    1
    33    38    39   ar
    34    39    40   ar
    35    40    41   ar
    36    41    42   ar
    37    42    43   ar
    38    43    44    1
    39    10    11    1
    40    11    12    1
    41    15    16   ar
    42    16    17   ar
    43    17    18   ar
    44    18    13   ar
    45     7     1    1
    46    43    38   ar
    47    26    21   ar
    48    12     7    1
    49    32    27   ar
@<TRIPOS>MOLECULE
*****
 44 49 0 0 0
SMALL
GASTEIGER

@<TRIPOS>ATOM
      1 N         141.9559  138.0917  158.3372 N.am    1  UNL1       -0.2222
      2 C         142.2032  138.0370  159.8158 C.2     1  UNL1        0.3219
      3 O         143.3509  137.3484  160.4929 O.2     1  UNL1       -0.2512
      4 N         141.1011  138.7919  160.4983 N.am    1  UNL1       -0.1907
      5 C         140.1728  139.3131  159.4416 C.2     1  UNL1        0.2529
      6 O         138.9337  140.1245  159.6787 O.2     1  UNL1       -0.2724
      7 C         140.7011  138.8803  158.1060 C.3     1  UNL1        0.1391
      8 C         141.3465  138.3780  156.8486 C.3     1  UNL1        0.0449
      9 C         140.7285  138.6808  155.5158 C.3     1  UNL1        0.0746
     10 N         139.4651  139.4859  155.4404 N.3     1  UNL1       -0.2676
     11 C         138.8197  139.9882  156.6978 C.3     1  UNL1        0.0746
     12 C         139.4377  139.6854  158.0306 C.3     1  UNL1        0.0449
     13 C         143.5544  135.3761  155.9248 C.ar    1  UNL1        0.2293
     14 C         142.6973  136.0004  156.9857 C.ar    1  UNL1        0.0924
     15 C         142.8131  137.4674  157.2763 C.ar    1  UNL1        0.1453
     16 N         143.7860  138.3101  156.5061 N.ar    1  UNL1       -0.2084
     17 C         144.6431  137.6859  155.4452 C.ar    1  UNL1        0.2027
     18 N         144.5273  136.2188  155.1545 N.ar    1  UNL1       -0.1892
     19 C         142.0856  133.2759  155.4990 C.3     1  UNL1        0.2542
     20 O         143.4386  133.9091  155.6340 O.3     1  UNL1       -0.4560
     21 C         140.9533  138.9906  161.9776 C.ar    1  UNL1        0.0622
     22 C         141.0711  140.3657  162.5651 C.ar    1  UNL1        0.0154
     23 C         140.9233  140.5644  164.0445 C.ar    1  UNL1        0.0014
     24 C         140.6577  139.3881  164.9365 C.ar    1  UNL1        0.0022
     25 C         140.5400  138.0128  164.3490 C.ar    1  UNL1        0.0014
     26 C         140.6878  137.8142  162.8696 C.ar    1  UNL1        0.0154
     27 C         140.5099  139.5868  166.4159 C.ar    1  UNL1        0.0275
     28 C         141.7287  139.7073  167.2819 C.ar    1  UNL1        0.0023
     29 C         141.5809  139.9061  168.7613 C.ar    1  UNL1        0.0013
     30 C         140.2143  139.9842  169.3746 C.ar    1  UNL1        0.0162
     31 C         138.9955  139.8637  168.5086 C.ar    1  UNL1        0.0308
     32 C         139.1433  139.6650  167.0293 C.ar    1  UNL1        0.1401
     33 F         137.9245  139.5444  166.1633 F       1  UNL1       -0.2042
     34 C         140.0665  140.1830  170.8541 C.2     1  UNL1        0.0729
     35 O         139.2725  139.2036  171.6668 O.co2   1  UNL1       -0.5446
     36 O         140.7127  141.3611  171.5208 O.co2   1  UNL1       -0.5446
     37 C         138.8471  139.7886  154.1075 C.3     1  UNL1        0.1183
     38 C         137.4766  140.3943  154.0365 C.ar    1  UNL1        0.0712
     39 N         137.3193  141.8799  153.9016 N.ar    1  UNL1       -0.2471
     40 C         135.9488  142.4855  153.8305 C.ar    1  UNL1        0.0985
     41 C         134.7357  141.6056  153.8943 C.ar    1  UNL1        0.0203
     42 C         134.8931  140.1200  154.0292 C.ar    1  UNL1       -0.0015
     43 C         136.2635  139.5143  154.1002 C.ar    1  UNL1       -0.0069
     44 C         136.4209  138.0287  154.2351 C.3     1  UNL1        0.0323
@<TRIPOS>UNITY_ATOM_ATTR
35 1
charge -1
@<TRIPOS>BOND
     1    19    20    1
     2    20    13    1
     3    13    14   ar
     4    14    15   ar
     5    15     1    1
     6     1     2   am
     7     2     3    2
     8     2     4   am
     9     4    21    1
    10    21    22   ar
    11    22    23   ar
    12    23    24   ar
    13    24    27    1
    14    27    28   ar
    15    28    29   ar
    16    29    30   ar
    17    30    34    1
    18    34    35   ar
    19    34    36   ar
    20    30    31   ar
    21    31    32   ar
    22    32    33    1
    23    24    25   ar
    24    25    26   ar
    25     4     5   am
    26     5     6    2
    27     5     7    1
    28     7     8    1
    29     8     9    1
    30     9    10    1
    31    10    37    1
    32    37    38    1
    33    38    39   ar
    34    39    40   ar
    35    40    41   ar
    36    41    42   ar
    37    42    43   ar
    38    43    44    1
    39    10    11    1
    40    11    12    1
    41    15    16   ar
    42    16    17   ar
    43    17    18   ar
    44    18    13   ar
    45     7     1    1
    46    43    38   ar
    47    26    21   ar
    48    12     7    1
    49    32    27   ar
@<TRIPOS>MOLECULE
*****
 44 49 0 0 0
SMALL
GASTEIGER

@<TRIPOS>ATOM
      1 N         142.0137  138.5717  158.6311 N.am    1  UNL1       -0.2222
      2 C         141.4022  138.6010  160.0006 C.2     1  UNL1        0.3219
      3 O         140.2689  137.7425  160.4787 O.2     1  UNL1       -0.2512
      4 N         142.1230  139.6396  160.8080 N.am    1  UNL1       -0.1907
      5 C         143.1800  140.2522  159.9376 C.2     1  UNL1        0.2529
      6 O         144.1365  141.3346  160.3415 O.2     1  UNL1       -0.2724
      7 C         143.1124  139.5922  158.5922 C.3     1  UNL1        0.1391
      8 C         142.9267  138.8461  157.3042 C.3     1  UNL1        0.0449
      9 C         143.8038  139.1528  156.1267 C.3     1  UNL1        0.0746
     10 N         144.8666  140.2055  156.2372 N.3     1  UNL1       -0.2676
     11 C         145.0523  140.9516  157.5251 C.3     1  UNL1        0.0746
     12 C         144.1752  140.6450  158.7026 C.3     1  UNL1        0.0449
     13 C         141.9007  135.4885  156.1351 C.ar    1  UNL1        0.2293
     14 C         142.3152  136.3814  157.2668 C.ar    1  UNL1        0.0924
     15 C         141.5992  137.6788  157.4994 C.ar    1  UNL1        0.1453
     16 N         140.4687  138.0832  156.6003 N.ar    1  UNL1       -0.2084
     17 C         140.0542  137.1904  155.4686 C.ar    1  UNL1        0.2027
     18 N         140.7702  135.8929  155.2359 N.ar    1  UNL1       -0.1892
     19 C         143.1874  133.4309  157.0628 C.3     1  UNL1        0.2542
     20 O         142.6166  134.1911  155.9024 O.3     1  UNL1       -0.4560
     21 C         141.8371  140.0019  162.2351 C.ar    1  UNL1        0.0622
     22 C         142.2243  139.0633  163.3392 C.ar    1  UNL1        0.0154
     23 C         141.9383  139.4257  164.7665 C.ar    1  UNL1        0.0014
     24 C         141.2653  140.7267  165.0896 C.ar    1  UNL1        0.0022
     25 C         140.8781  141.6654  163.9854 C.ar    1  UNL1        0.0014
     26 C         141.1641  141.3029  162.5582 C.ar    1  UNL1        0.0154
     27 C         140.9793  141.0891  166.5168 C.ar    1  UNL1        0.0275
     28 C         141.6953  142.2419  167.1558 C.ar    1  UNL1        0.0023
     29 C         141.4093  142.6043  168.5830 C.ar    1  UNL1        0.0013
     30 C         140.4074  141.8137  169.3712 C.ar    1  UNL1        0.0162
     31 C         139.6915  140.6609  168.7322 C.ar    1  UNL1        0.0308
     32 C         139.9774  140.2985  167.3051 C.ar    1  UNL1        0.1401
     33 F         139.2615  139.1456  166.6661 F       1  UNL1       -0.2042
     34 C         140.1215  142.1761  170.7984 C.2     1  UNL1        0.0729
     35 O         140.7280  141.3744  171.9117 O.co2   1  UNL1       -0.5446
     36 O         139.2290  143.3402  171.1123 O.co2   1  UNL1       -0.5446
     37 C         145.7438  140.5122  155.0596 C.3     1  UNL1        0.1183
     38 C         145.8789  141.9245  154.5726 C.ar    1  UNL1        0.0712
     39 N         144.7079  142.6141  153.9376 N.ar    1  UNL1       -0.2471
     40 C         144.8430  144.0265  153.4507 C.ar    1  UNL1        0.0985
     41 C         146.1491  144.7491  153.5986 C.ar    1  UNL1        0.0203
     42 C         147.3201  144.0594  154.2335 C.ar    1  UNL1       -0.0015
     43 C         147.1850  142.6472  154.7205 C.ar    1  UNL1       -0.0069
     44 C         148.3560  141.9575  155.3555 C.3     1  UNL1        0.0323
@<TRIPOS>UNITY_ATOM_ATTR
35 1
charge -1
@<TRIPOS>BOND
     1    19    20    1
     2    20    13    1
     3    13    14   ar
     4    14    15   ar
     5    15     1    1
     6     1     2   am
     7     2     3    2
     8     2     4   am
     9     4    21    1
    10    21    22   ar
    11    22    23   ar
    12    23    24   ar
    13    24    27    1
    14    27    28   ar
    15    28    29   ar
    16    29    30   ar
    17    30    34    1
    18    34    35   ar
    19    34    36   ar
    20    30    31   ar
    21    31    32   ar
    22    32    33    1
    23    24    25   ar
    24    25    26   ar
    25     4     5   am
    26     5     6    2
    27     5     7    1
    28     7     8    1
    29     8     9    1
    30     9    10    1
    31    10    37    1
    32    37    38    1
    33    38    39   ar
    34    39    40   ar
    35    40    41   ar
    36    41    42   ar
    37    42    43   ar
    38    43    44    1
    39    10    11    1
    40    11    12    1
    41    15    16   ar
    42    16    17   ar
    43    17    18   ar
    44    18    13   ar
    45     7     1    1
    46    43    38   ar
    47    26    21   ar
    48    12     7    1
    49    32    27   ar
@<TRIPOS>MOLECULE
*****
 44 49 0 0 0
SMALL
GASTEIGER

@<TRIPOS>ATOM
      1 N         143.6489  140.9795  158.5616 N.am    1  UNL1       -0.2222
      2 C         143.4163  141.6390  159.8886 C.2     1  UNL1        0.3219
      3 O         143.7100  143.0710  160.2251 O.2     1  UNL1       -0.2512
      4 N         142.8383  140.6151  160.8201 N.am    1  UNL1       -0.1907
      5 C         142.7137  139.3228  160.0687 C.2     1  UNL1        0.2529
      6 O         142.1816  138.0320  160.6169 O.2     1  UNL1       -0.2724
      7 C         143.2147  139.5480  158.6729 C.3     1  UNL1        0.1391
      8 C         143.7437  139.9217  157.3199 C.3     1  UNL1        0.0449
      9 C         143.8005  138.8956  156.2273 C.3     1  UNL1        0.0746
     10 N         143.3284  137.4959  156.4876 N.3     1  UNL1       -0.2676
     11 C         142.7994  137.1222  157.8406 C.3     1  UNL1        0.0746
     12 C         142.7426  138.1483  158.9332 C.3     1  UNL1        0.0449
     13 C         143.8737  142.9929  155.1490 C.ar    1  UNL1        0.2293
     14 C         143.3064  142.3362  156.3725 C.ar    1  UNL1        0.0924
     15 C         144.2162  141.6362  157.3381 C.ar    1  UNL1        0.1453
     16 N         145.6932  141.5929  157.0801 N.ar    1  UNL1       -0.2084
     17 C         146.2605  142.2495  155.8567 C.ar    1  UNL1        0.2027
     18 N         145.3507  142.9496  154.8911 N.ar    1  UNL1       -0.1892
     19 C         142.5802  145.1240  154.4175 C.3     1  UNL1        0.2542
     20 O         142.9640  143.6930  154.1835 O.3     1  UNL1       -0.4560
     21 C         142.4526  140.8434  162.2515 C.ar    1  UNL1        0.0622
     22 C         141.0239  140.6805  162.6784 C.ar    1  UNL1        0.0154
     23 C         140.6382  140.9088  164.1099 C.ar    1  UNL1        0.0014
     24 C         141.6811  141.3000  165.1145 C.ar    1  UNL1        0.0022
     25 C         143.1099  141.4629  164.6875 C.ar    1  UNL1        0.0014
     26 C         143.4955  141.2346  163.2560 C.ar    1  UNL1        0.0154
     27 C         141.2954  141.5283  166.5460 C.ar    1  UNL1        0.0275
     28 C         140.7236  142.8495  166.9671 C.ar    1  UNL1        0.0023
     29 C         140.3379  143.0778  168.3986 C.ar    1  UNL1        0.0013
     30 C         140.5241  141.9848  169.4088 C.ar    1  UNL1        0.0162
     31 C         141.0959  140.6636  168.9877 C.ar    1  UNL1        0.0308
     32 C         141.4816  140.4353  167.5563 C.ar    1  UNL1        0.1401
     33 F         142.0534  139.1140  167.1352 F       1  UNL1       -0.2042
     34 C         140.1383  142.2131  170.8403 C.2     1  UNL1        0.0729
     35 O         140.6470  141.2929  171.9101 O.co2   1  UNL1       -0.5446
     36 O         139.2439  143.3617  171.2020 O.co2   1  UNL1       -0.5446
     37 C         143.3853  136.4697  155.3949 C.3     1  UNL1        0.1183
     38 C         143.0791  135.0331  155.6985 C.ar    1  UNL1        0.0712
     39 N         143.9626  134.2589  156.6313 N.ar    1  UNL1       -0.2471
     40 C         143.6564  132.8221  156.9349 C.ar    1  UNL1        0.0985
     41 C         142.4668  132.1597  156.3057 C.ar    1  UNL1        0.0203
     42 C         141.5833  132.9339  155.3730 C.ar    1  UNL1       -0.0015
     43 C         141.8894  134.3706  155.0694 C.ar    1  UNL1       -0.0069
     44 C         141.0059  135.1448  154.1366 C.3     1  UNL1        0.0323
@<TRIPOS>UNITY_ATOM_ATTR
35 1
charge -1
@<TRIPOS>BOND
     1    19    20    1
     2    20    13    1
     3    13    14   ar
     4    14    15   ar
     5    15     1    1
     6     1     2   am
     7     2     3    2
     8     2     4   am
     9     4    21    1
    10    21    22   ar
    11    22    23   ar
    12    23    24   ar
    13    24    27    1
    14    27    28   ar
    15    28    29   ar
    16    29    30   ar
    17    30    34    1
    18    34    35   ar
    19    34    36   ar
    20    30    31   ar
    21    31    32   ar
    22    32    33    1
    23    24    25   ar
    24    25    26   ar
    25     4     5   am
    26     5     6    2
    27     5     7    1
    28     7     8    1
    29     8     9    1
    30     9    10    1
    31    10    37    1
    32    37    38    1
    33    38    39   ar
    34    39    40   ar
    35    40    41   ar
    36    41    42   ar
    37    42    43   ar
    38    43    44    1
    39    10    11    1
    40    11    12    1
    41    15    16   ar
    42    16    17   ar
    43    17    18   ar
    44    18    13   ar
    45     7     1    1
    46    43    38   ar
    47    26    21   ar
    48    12     7    1
    49    32    27   ar
@<TRIPOS>MOLECULE
*****
 44 49 0 0 0
SMALL
GASTEIGER

@<TRIPOS>ATOM
      1 N         141.9493  138.5308  158.6328 N.am    1  UNL1       -0.2222
      2 C         141.3428  138.5693  160.0043 C.2     1  UNL1        0.3219
      3 O         140.2163  137.7088  160.4947 O.2     1  UNL1       -0.2512
      4 N         142.0607  139.6195  160.7992 N.am    1  UNL1       -0.1907
      5 C         143.1108  140.2300  159.9190 C.2     1  UNL1        0.2529
      6 O         144.0626  141.3217  160.3092 O.2     1  UNL1       -0.2724
      7 C         143.0419  139.5572  158.5801 C.3     1  UNL1        0.1391
      8 C         142.8557  138.7981  157.2999 C.3     1  UNL1        0.0449
      9 C         143.7265  139.0988  156.1162 C.3     1  UNL1        0.0746
     10 N         144.7836  140.1586  156.2127 N.3     1  UNL1       -0.2676
     11 C         144.9699  140.9177  157.4930 C.3     1  UNL1        0.0746
     12 C         144.0990  140.6170  158.6766 C.3     1  UNL1        0.0449
     13 C         139.8920  137.0299  155.5890 C.ar    1  UNL1        0.2293
     14 C         140.3056  137.9357  156.7107 C.ar    1  UNL1        0.0924
     15 C         141.5357  137.6250  157.5110 C.ar    1  UNL1        0.1453
     16 N         142.3521  136.4084  157.1895 N.ar    1  UNL1       -0.2084
     17 C         141.9386  135.5025  156.0678 C.ar    1  UNL1        0.2027
     18 N         140.7084  135.8133  155.2675 N.ar    1  UNL1       -0.1892
     19 C         138.6378  137.0668  153.3141 C.3     1  UNL1        0.2542
     20 O         138.6620  137.3406  154.7887 O.3     1  UNL1       -0.4560
     21 C         141.7781  139.9935  162.2240 C.ar    1  UNL1        0.0622
     22 C         140.4415  140.5613  162.5994 C.ar    1  UNL1        0.0154
     23 C         140.1589  140.9353  164.0243 C.ar    1  UNL1        0.0014
     24 C         141.2129  140.7415  165.0737 C.ar    1  UNL1        0.0022
     25 C         142.5497  140.1737  164.6983 C.ar    1  UNL1        0.0014
     26 C         142.8322  139.7997  163.2734 C.ar    1  UNL1        0.0154
     27 C         140.9304  141.1155  166.4986 C.ar    1  UNL1        0.0275
     28 C         140.8389  140.0494  167.5499 C.ar    1  UNL1        0.0023
     29 C         140.5564  140.4234  168.9748 C.ar    1  UNL1        0.0013
     30 C         140.3652  141.8636  169.3483 C.ar    1  UNL1        0.0162
     31 C         140.4566  142.9296  168.2971 C.ar    1  UNL1        0.0308
     32 C         140.7392  142.5557  166.8723 C.ar    1  UNL1        0.1401
     33 F         140.8306  143.6217  165.8210 F       1  UNL1       -0.2042
     34 C         140.0826  142.2376  170.7732 C.2     1  UNL1        0.0729
     35 O         140.6321  141.4019  171.8911 O.co2   1  UNL1       -0.5446
     36 O         139.2505  143.4474  171.0802 O.co2   1  UNL1       -0.5446
     37 C         145.6545  140.4593  155.0290 C.3     1  UNL1        0.1183
     38 C         145.8191  141.8742  154.5591 C.ar    1  UNL1        0.0712
     39 N         144.6687  142.5891  153.9145 N.ar    1  UNL1       -0.2471
     40 C         144.8334  144.0041  153.4446 C.ar    1  UNL1        0.0985
     41 C         146.1485  144.7042  153.6194 C.ar    1  UNL1        0.0203
     42 C         147.2989  143.9893  154.2640 C.ar    1  UNL1       -0.0015
     43 C         147.1342  142.5743  154.7339 C.ar    1  UNL1       -0.0069
     44 C         148.2846  141.8595  155.3785 C.3     1  UNL1        0.0323
@<TRIPOS>UNITY_ATOM_ATTR
35 1
charge -1
@<TRIPOS>BOND
     1    19    20    1
     2    20    13    1
     3    13    14   ar
     4    14    15   ar
     5    15     1    1
     6     1     2   am
     7     2     3    2
     8     2     4   am
     9     4    21    1
    10    21    22   ar
    11    22    23   ar
    12    23    24   ar
    13    24    27    1
    14    27    28   ar
    15    28    29   ar
    16    29    30   ar
    17    30    34    1
    18    34    35   ar
    19    34    36   ar
    20    30    31   ar
    21    31    32   ar
    22    32    33    1
    23    24    25   ar
    24    25    26   ar
    25     4     5   am
    26     5     6    2
    27     5     7    1
    28     7     8    1
    29     8     9    1
    30     9    10    1
    31    10    37    1
    32    37    38    1
    33    38    39   ar
    34    39    40   ar
    35    40    41   ar
    36    41    42   ar
    37    42    43   ar
    38    43    44    1
    39    10    11    1
    40    11    12    1
    41    15    16   ar
    42    16    17   ar
    43    17    18   ar
    44    18    13   ar
    45     7     1    1
    46    43    38   ar
    47    26    21   ar
    48    12     7    1
    49    32    27   ar
