@<TRIPOS>MOLECULE
*****
 44 47 0 0 0
SMALL
GASTEIGER

@<TRIPOS>ATOM
      1 C         140.6763  143.9742  161.0229 C.3     1  UNL1        0.0925
      2 C         141.7834  144.6242  160.2472 C.3     1  UNL1        0.0123
      3 C         142.3370  143.6098  159.2910 C.3     1  UNL1        0.0165
      4 C         141.5720  142.3328  159.4756 C.3     1  UNL1        0.0581
      5 C         140.5456  142.5581  160.5460 C.3     1  UNL1        0.0268
      6 N         141.7944  141.0550  158.7221 N.3     1  UNL1       -0.2739
      7 C         143.1180  140.7907  158.0678 C.3     1  UNL1        0.0724
      8 C         143.3404  139.5129  157.3143 C.3     1  UNL1        0.0217
      9 C         142.2391  138.4993  157.2152 C.3     1  UNL1        0.0251
     10 C         140.9155  138.7636  157.8696 C.3     1  UNL1        0.0217
     11 C         140.6931  140.0414  158.6231 C.3     1  UNL1        0.0724
     12 C         142.4615  137.2215  156.4617 C.ar    1  UNL1       -0.0224
     13 C         142.3226  137.1975  154.9684 C.ar    1  UNL1       -0.0043
     14 C         142.5450  135.9197  154.2149 C.ar    1  UNL1       -0.0003
     15 C         142.9062  134.6659  154.9548 C.ar    1  UNL1        0.0011
     16 C         143.0451  134.6899  156.4482 C.ar    1  UNL1        0.0137
     17 C         142.8227  135.9677  157.2017 C.ar    1  UNL1       -0.0031
     18 C         143.4064  133.4360  157.1881 C.2     1  UNL1        0.0729
     19 O         144.6192  133.4089  158.0703 O.co2   1  UNL1       -0.5446
     20 O         142.5548  132.2094  157.0458 O.co2   1  UNL1       -0.5446
     21 C         139.9321  145.8785  160.4574 C.3     1  UNL1        0.0298
     22 C         140.5708  145.3130  161.6912 C.3     1  UNL1        0.0961
     23 C         141.1056  145.1107  162.9141 C.3     1  UNL1        0.0298
     24 O         140.4654  146.6518  162.3594 O.3     1  UNL1       -0.3863
     25 H         140.8320  146.5956  163.2557 H       1  UNL1        0.2102
     26 C         139.5471  143.6041  161.9382 C.2     1  UNL1        0.2240
     27 O         138.3911  144.5424  162.1207 O.2     1  UNL1       -0.2750
     28 N         139.5738  142.2955  162.6711 N.am    1  UNL1       -0.3004
     29 H         140.3325  141.6796  162.5513 H       1  UNL1        0.1497
     30 C         138.4446  141.9254  163.5864 C.3     1  UNL1        0.1163
     31 C         138.7283  141.2254  164.8824 C.ar    1  UNL1       -0.0027
     32 C         138.1469  139.8677  165.1445 C.ar    1  UNL1        0.0012
     33 C         138.4306  139.1677  166.4404 C.ar    1  UNL1        0.0711
     34 C         139.2957  139.8255  167.4744 C.ar    1  UNL1        0.0077
     35 C         139.8770  141.1832  167.2124 C.ar    1  UNL1        0.0711
     36 C         139.5933  141.8831  165.9164 C.ar    1  UNL1        0.0012
     37 C         137.8493  137.8100  166.7025 C.3     1  UNL1        0.4186
     38 F         137.2680  136.4523  166.9645 F       1  UNL1       -0.1659
     39 F         138.6522  137.2472  165.5674 F       1  UNL1       -0.1659
     40 F         137.0464  138.3728  167.8376 F       1  UNL1       -0.1659
     41 C         140.7421  141.8409  168.2463 C.3     1  UNL1        0.4186
     42 F         141.6072  142.4987  169.2802 F       1  UNL1       -0.1659
     43 F         141.0095  142.9747  167.3013 F       1  UNL1       -0.1659
     44 F         140.4747  140.7071  169.1913 F       1  UNL1       -0.1659
@<TRIPOS>UNITY_ATOM_ATTR
19 1
charge -1
@<TRIPOS>BOND
     1    21    22    1
     2    22    23    1
     3    22    24    1
     4     1    22    1
     5     1    26    1
     6    26    27    2
     7    26    28   am
     8    28    30    1
     9    30    31    1
    10    31    32   ar
    11    32    33   ar
    12    33    37    1
    13    37    38    1
    14    37    39    1
    15    37    40    1
    16    33    34   ar
    17    34    35   ar
    18    35    41    1
    19    41    42    1
    20    41    43    1
    21    41    44    1
    22    35    36   ar
    23     1     2    1
    24     2     3    1
    25     3     4    1
    26     4     6    1
    27     6     7    1
    28     7     8    1
    29     8     9    1
    30     9    12    1
    31    12    13   ar
    32    13    14   ar
    33    14    15   ar
    34    15    16   ar
    35    16    18    1
    36    18    19   ar
    37    18    20   ar
    38    16    17   ar
    39     9    10    1
    40    10    11    1
    41     4     5    1
    42     5     1    1
    43    36    31   ar
    44    11     6    1
    45    17    12   ar
    46    24    25    1
    47    28    29    1
@<TRIPOS>MOLECULE
*****
 44 47 0 0 0
SMALL
GASTEIGER

@<TRIPOS>ATOM
      1 C         138.8124  140.9908  160.4898 C.3     1  UNL1        0.0925
      2 C         139.0802  140.1311  159.2902 C.3     1  UNL1        0.0123
      3 C         139.2981  141.0338  158.1123 C.3     1  UNL1        0.0165
      4 C         139.1650  142.4515  158.5838 C.3     1  UNL1        0.0581
      5 C         138.8648  142.4249  160.0532 C.3     1  UNL1        0.0268
      6 N         139.3072  143.6800  157.7350 N.3     1  UNL1       -0.2739
      7 C         138.6267  143.7524  156.4002 C.3     1  UNL1        0.0724
      8 C         138.7689  144.9809  155.5515 C.3     1  UNL1        0.0217
      9 C         139.5915  146.1372  156.0375 C.3     1  UNL1        0.0251
     10 C         140.2720  146.0649  157.3723 C.3     1  UNL1        0.0217
     11 C         140.1299  144.8363  158.2211 C.3     1  UNL1        0.0724
     12 C         139.7337  147.3658  155.1887 C.ar    1  UNL1       -0.0224
     13 C         140.3702  147.2717  153.8337 C.ar    1  UNL1       -0.0043
     14 C         140.5124  148.5002  152.9849 C.ar    1  UNL1       -0.0003
     15 C         140.0179  149.8229  153.4911 C.ar    1  UNL1        0.0011
     16 C         139.3813  149.9169  154.8461 C.ar    1  UNL1        0.0137
     17 C         139.2392  148.6884  155.6949 C.ar    1  UNL1       -0.0031
     18 C         138.8869  151.2396  155.3523 C.2     1  UNL1        0.0729
     19 O         138.2303  152.2049  154.4106 O.co2   1  UNL1       -0.5446
     20 O         139.0491  151.5967  156.8001 O.co2   1  UNL1       -0.5446
     21 C         137.2923  139.5278  160.7104 C.3     1  UNL1        0.0298
     22 C         138.6990  139.6791  161.2085 C.3     1  UNL1        0.0961
     23 C         139.9027  139.5256  161.8000 C.3     1  UNL1        0.0298
     24 O         138.5856  138.3674  161.9273 O.3     1  UNL1       -0.3863
     25 H         139.4188  138.1769  162.3859 H       1  UNL1        0.2102
     26 C         138.5209  141.5764  161.8396 C.2     1  UNL1        0.2240
     27 O         137.1125  141.6089  162.3548 O.2     1  UNL1       -0.2750
     28 N         139.6378  142.1294  162.6743 N.am    1  UNL1       -0.3004
     29 H         140.5622  142.1080  162.3362 H       1  UNL1        0.1497
     30 C         139.3463  142.7150  164.0242 C.3     1  UNL1        0.1163
     31 C         139.4202  141.8511  165.2483 C.ar    1  UNL1       -0.0027
     32 C         138.7818  140.4938  165.2481 C.ar    1  UNL1        0.0012
     33 C         138.8558  139.6301  166.4722 C.ar    1  UNL1        0.0711
     34 C         139.5681  140.1237  167.6965 C.ar    1  UNL1        0.0077
     35 C         140.2065  141.4810  167.6967 C.ar    1  UNL1        0.0711
     36 C         140.1325  142.3447  166.4726 C.ar    1  UNL1        0.0012
     37 C         138.2174  138.2726  166.4720 C.3     1  UNL1        0.4186
     38 F         137.5790  136.9153  166.4718 F       1  UNL1       -0.1659
     39 F         137.3011  138.7034  167.5787 F       1  UNL1       -0.1659
     40 F         139.1336  137.8418  165.3653 F       1  UNL1       -0.1659
     41 C         140.9188  141.9746  168.9211 C.3     1  UNL1        0.4186
     42 F         141.6311  142.4682  170.1454 F       1  UNL1       -0.1659
     43 F         141.3548  140.5735  169.2322 F       1  UNL1       -0.1659
     44 F         140.4827  143.3757  168.6099 F       1  UNL1       -0.1659
@<TRIPOS>UNITY_ATOM_ATTR
19 1
charge -1
@<TRIPOS>BOND
     1    21    22    1
     2    22    23    1
     3    22    24    1
     4     1    22    1
     5     1    26    1
     6    26    27    2
     7    26    28   am
     8    28    30    1
     9    30    31    1
    10    31    32   ar
    11    32    33   ar
    12    33    37    1
    13    37    38    1
    14    37    39    1
    15    37    40    1
    16    33    34   ar
    17    34    35   ar
    18    35    41    1
    19    41    42    1
    20    41    43    1
    21    41    44    1
    22    35    36   ar
    23     1     2    1
    24     2     3    1
    25     3     4    1
    26     4     6    1
    27     6     7    1
    28     7     8    1
    29     8     9    1
    30     9    12    1
    31    12    13   ar
    32    13    14   ar
    33    14    15   ar
    34    15    16   ar
    35    16    18    1
    36    18    19   ar
    37    18    20   ar
    38    16    17   ar
    39     9    10    1
    40    10    11    1
    41     4     5    1
    42     5     1    1
    43    36    31   ar
    44    11     6    1
    45    17    12   ar
    46    24    25    1
    47    28    29    1
@<TRIPOS>MOLECULE
*****
 44 47 0 0 0
SMALL
GASTEIGER

@<TRIPOS>ATOM
      1 C         138.8537  141.2512  160.3895 C.3     1  UNL1        0.0925
      2 C         139.1345  140.3671  159.2108 C.3     1  UNL1        0.0123
      3 C         139.3581  141.2453  158.0155 C.3     1  UNL1        0.0165
      4 C         139.2154  142.6722  158.4554 C.3     1  UNL1        0.0581
      5 C         138.9036  142.6759  159.9226 C.3     1  UNL1        0.0268
      6 N         139.3592  143.8828  157.5815 N.3     1  UNL1       -0.2739
      7 C         138.6708  143.9326  156.2498 C.3     1  UNL1        0.0724
      8 C         138.8146  145.1433  155.3759 C.3     1  UNL1        0.0217
      9 C         139.6468  146.3042  155.8338 C.3     1  UNL1        0.0251
     10 C         140.3352  146.2544  157.1656 C.3     1  UNL1        0.0217
     11 C         140.1915  145.0437  158.0395 C.3     1  UNL1        0.0724
     12 C         139.7906  147.5149  154.9600 C.ar    1  UNL1       -0.0224
     13 C         140.4480  147.3966  153.6169 C.ar    1  UNL1       -0.0043
     14 C         140.5918  148.6072  152.7431 C.ar    1  UNL1       -0.0003
     15 C         140.0782  149.9362  153.2122 C.ar    1  UNL1        0.0011
     16 C         139.4207  150.0544  154.5554 C.ar    1  UNL1        0.0137
     17 C         139.2769  148.8438  155.4292 C.ar    1  UNL1       -0.0031
     18 C         138.9070  151.3834  155.0245 C.2     1  UNL1        0.0729
     19 O         138.1891  152.2896  154.0690 O.co2   1  UNL1       -0.5446
     20 O         139.1114  151.8059  156.4492 O.co2   1  UNL1       -0.5446
     21 C         137.3581  139.7596  160.5855 C.3     1  UNL1        0.0298
     22 C         138.7400  139.9548  161.1353 C.3     1  UNL1        0.0961
     23 C         139.9220  139.8429  161.7779 C.3     1  UNL1        0.0298
     24 O         138.6263  138.6583  161.8812 O.3     1  UNL1       -0.3863
     25 H         139.4443  138.4978  162.3772 H       1  UNL1        0.2102
     26 C         138.5490  141.8644  161.7241 C.2     1  UNL1        0.2240
     27 O         137.1543  141.8105  162.2734 O.2     1  UNL1       -0.2750
     28 N         139.6392  142.5314  162.5094 N.am    1  UNL1       -0.3004
     29 H         140.5546  142.5668  162.1489 H       1  UNL1        0.1497
     30 C         139.3346  143.1445  163.8440 C.3     1  UNL1        0.1163
     31 C         139.4937  142.3336  165.0959 C.ar    1  UNL1       -0.0027
     32 C         140.2776  142.8828  166.2507 C.ar    1  UNL1        0.0012
     33 C         140.4368  142.0719  167.5025 C.ar    1  UNL1        0.0711
     34 C         139.8120  140.7116  167.5994 C.ar    1  UNL1        0.0077
     35 C         139.0280  140.1624  166.4446 C.ar    1  UNL1        0.0711
     36 C         138.8689  140.9733  165.1928 C.ar    1  UNL1        0.0012
     37 C         141.2207  142.6211  168.6574 C.3     1  UNL1        0.4186
     38 F         142.0046  143.1704  169.8123 F       1  UNL1       -0.1659
     39 F         140.2049  143.7114  168.8284 F       1  UNL1       -0.1659
     40 F         142.2366  141.5308  168.4865 F       1  UNL1       -0.1659
     41 C         138.4032  138.8021  166.5415 C.3     1  UNL1        0.4186
     42 F         137.7784  137.4419  166.6384 F       1  UNL1       -0.1659
     43 F         137.9405  139.1139  167.9338 F       1  UNL1       -0.1659
     44 F         138.8660  138.4904  165.1491 F       1  UNL1       -0.1659
@<TRIPOS>UNITY_ATOM_ATTR
19 1
charge -1
@<TRIPOS>BOND
     1    21    22    1
     2    22    23    1
     3    22    24    1
     4     1    22    1
     5     1    26    1
     6    26    27    2
     7    26    28   am
     8    28    30    1
     9    30    31    1
    10    31    32   ar
    11    32    33   ar
    12    33    37    1
    13    37    38    1
    14    37    39    1
    15    37    40    1
    16    33    34   ar
    17    34    35   ar
    18    35    41    1
    19    41    42    1
    20    41    43    1
    21    41    44    1
    22    35    36   ar
    23     1     2    1
    24     2     3    1
    25     3     4    1
    26     4     6    1
    27     6     7    1
    28     7     8    1
    29     8     9    1
    30     9    12    1
    31    12    13   ar
    32    13    14   ar
    33    14    15   ar
    34    15    16   ar
    35    16    18    1
    36    18    19   ar
    37    18    20   ar
    38    16    17   ar
    39     9    10    1
    40    10    11    1
    41     4     5    1
    42     5     1    1
    43    36    31   ar
    44    11     6    1
    45    17    12   ar
    46    24    25    1
    47    28    29    1
@<TRIPOS>MOLECULE
*****
 44 47 0 0 0
SMALL
GASTEIGER

@<TRIPOS>ATOM
      1 C         140.7360  143.9523  161.0672 C.3     1  UNL1        0.0925
      2 C         141.8513  144.5984  160.3000 C.3     1  UNL1        0.0123
      3 C         142.4041  143.5841  159.3432 C.3     1  UNL1        0.0165
      4 C         141.6305  142.3111  159.5190 C.3     1  UNL1        0.0581
      5 C         140.5995  142.5387  160.5845 C.3     1  UNL1        0.0268
      6 N         141.8494  141.0346  158.7623 N.3     1  UNL1       -0.2739
      7 C         142.3099  141.0781  157.3354 C.3     1  UNL1        0.0724
      8 C         142.5288  139.8016  156.5787 C.3     1  UNL1        0.0217
      9 C         142.2872  138.4816  157.2488 C.3     1  UNL1        0.0251
     10 C         141.8267  138.4381  158.6757 C.3     1  UNL1        0.0217
     11 C         141.6078  139.7146  159.4325 C.3     1  UNL1        0.0724
     12 C         142.5061  137.2051  156.4920 C.ar    1  UNL1       -0.0224
     13 C         142.3684  137.1856  154.9985 C.ar    1  UNL1       -0.0043
     14 C         142.5873  135.9092  154.2418 C.ar    1  UNL1       -0.0003
     15 C         142.9439  134.6522  154.9785 C.ar    1  UNL1        0.0011
     16 C         143.0817  134.6717  156.4722 C.ar    1  UNL1        0.0137
     17 C         142.8628  135.9481  157.2289 C.ar    1  UNL1       -0.0031
     18 C         143.4383  133.4147  157.2089 C.2     1  UNL1        0.0729
     19 O         144.6417  133.3857  158.1038 O.co2   1  UNL1       -0.5446
     20 O         142.5914  132.1868  157.0508 O.co2   1  UNL1       -0.5446
     21 C         139.9735  145.8540  160.5174 C.3     1  UNL1        0.0298
     22 C         140.6348  145.2893  161.7396 C.3     1  UNL1        0.0961
     23 C         141.1903  145.0875  162.9533 C.3     1  UNL1        0.0298
     24 O         140.5337  146.6264  162.4120 O.3     1  UNL1       -0.3863
     25 H         140.9151  146.5704  163.3021 H       1  UNL1        0.2102
     26 C         139.5995  143.5858  161.9749 C.2     1  UNL1        0.2240
     27 O         138.2208  144.1085  161.6992 O.2     1  UNL1       -0.2750
     28 N         139.8417  142.6964  163.1583 N.am    1  UNL1       -0.3004
     29 H         140.7465  142.3533  163.3393 H       1  UNL1        0.1497
     30 C         138.7052  142.3298  164.0661 C.3     1  UNL1        0.1163
     31 C         138.9549  141.4742  165.2726 C.ar    1  UNL1       -0.0027
     32 C         139.8493  141.9687  166.3706 C.ar    1  UNL1        0.0012
     33 C         140.0990  141.1131  167.5770 C.ar    1  UNL1        0.0711
     34 C         139.4543  139.7630  167.6855 C.ar    1  UNL1        0.0077
     35 C         138.5599  139.2686  166.5875 C.ar    1  UNL1        0.0711
     36 C         138.3103  140.1242  165.3810 C.ar    1  UNL1        0.0012
     37 C         140.9934  141.6075  168.6751 C.3     1  UNL1        0.4186
     38 F         141.8877  142.1019  169.7731 F       1  UNL1       -0.1659
     39 F         141.2129  140.1957  169.1318 F       1  UNL1       -0.1659
     40 F         140.7738  143.0192  168.2183 F       1  UNL1       -0.1659
     41 C         137.9153  137.9185  166.6960 C.3     1  UNL1        0.4186
     42 F         137.2706  136.5685  166.8044 F       1  UNL1       -0.1659
     43 F         138.8021  137.4069  165.5997 F       1  UNL1       -0.1659
     44 F         137.0284  138.4301  167.7922 F       1  UNL1       -0.1659
@<TRIPOS>UNITY_ATOM_ATTR
19 1
charge -1
@<TRIPOS>BOND
     1    21    22    1
     2    22    23    1
     3    22    24    1
     4     1    22    1
     5     1    26    1
     6    26    27    2
     7    26    28   am
     8    28    30    1
     9    30    31    1
    10    31    32   ar
    11    32    33   ar
    12    33    37    1
    13    37    38    1
    14    37    39    1
    15    37    40    1
    16    33    34   ar
    17    34    35   ar
    18    35    41    1
    19    41    42    1
    20    41    43    1
    21    41    44    1
    22    35    36   ar
    23     1     2    1
    24     2     3    1
    25     3     4    1
    26     4     6    1
    27     6     7    1
    28     7     8    1
    29     8     9    1
    30     9    12    1
    31    12    13   ar
    32    13    14   ar
    33    14    15   ar
    34    15    16   ar
    35    16    18    1
    36    18    19   ar
    37    18    20   ar
    38    16    17   ar
    39     9    10    1
    40    10    11    1
    41     4     5    1
    42     5     1    1
    43    36    31   ar
    44    11     6    1
    45    17    12   ar
    46    24    25    1
    47    28    29    1
@<TRIPOS>MOLECULE
*****
 44 47 0 0 0
SMALL
GASTEIGER

@<TRIPOS>ATOM
      1 C         140.9130  139.6806  161.1343 C.3     1  UNL1        0.0925
      2 C         140.6390  138.8461  159.9184 C.3     1  UNL1        0.0123
      3 C         140.4123  139.7733  158.7613 C.3     1  UNL1        0.0165
      4 C         140.5463  141.1808  159.2620 C.3     1  UNL1        0.0581
      5 C         140.8557  141.1235  160.7286 C.3     1  UNL1        0.0268
      6 N         140.3970  142.4269  158.4404 N.3     1  UNL1       -0.2739
      7 C         141.3356  143.5785  158.6470 C.3     1  UNL1        0.0724
      8 C         141.1864  144.8245  157.8254 C.3     1  UNL1        0.0217
      9 C         140.0984  144.9190  156.7972 C.3     1  UNL1        0.0251
     10 C         139.1597  143.7674  156.5906 C.3     1  UNL1        0.0217
     11 C         139.3090  142.5213  157.4121 C.3     1  UNL1        0.0724
     12 C         139.9491  146.1651  155.9756 C.ar    1  UNL1       -0.0224
     13 C         140.5181  146.2218  154.5889 C.ar    1  UNL1       -0.0043
     14 C         140.3688  147.4678  153.7673 C.ar    1  UNL1       -0.0003
     15 C         139.6505  148.6572  154.3324 C.ar    1  UNL1        0.0011
     16 C         139.0815  148.6006  155.7192 C.ar    1  UNL1        0.0137
     17 C         139.2307  147.3545  156.5408 C.ar    1  UNL1       -0.0031
     18 C         138.3632  149.7900  156.2843 C.2     1  UNL1        0.0729
     19 O         138.0511  150.9648  155.4055 O.co2   1  UNL1       -0.5446
     20 O         137.9569  149.8045  157.7282 O.co2   1  UNL1       -0.5446
     21 C         142.4452  138.2273  161.3353 C.3     1  UNL1        0.0298
     22 C         141.0329  138.3541  161.8243 C.3     1  UNL1        0.0961
     23 C         139.8257  138.1759  162.4016 C.3     1  UNL1        0.0298
     24 O         141.1528  137.0276  162.5143 O.3     1  UNL1       -0.3863
     25 H         140.3175  136.8189  162.9612 H       1  UNL1        0.2102
     26 C         141.2121  140.2378  162.4944 C.2     1  UNL1        0.2240
     27 O         142.3359  139.6676  163.3080 O.2     1  UNL1       -0.2750
     28 N         140.3874  141.3653  163.0410 N.am    1  UNL1       -0.3004
     29 H         139.6498  141.7395  162.5070 H       1  UNL1        0.1497
     30 C         140.6865  141.9225  164.4011 C.3     1  UNL1        0.1163
     31 C         140.1652  141.2313  165.6261 C.ar    1  UNL1       -0.0027
     32 C         139.3987  139.9486  165.4946 C.ar    1  UNL1        0.0012
     33 C         138.8774  139.2575  166.7195 C.ar    1  UNL1        0.0711
     34 C         139.1226  139.8489  168.0760 C.ar    1  UNL1        0.0077
     35 C         139.8891  141.1316  168.2075 C.ar    1  UNL1        0.0711
     36 C         140.4103  141.8227  166.9826 C.ar    1  UNL1        0.0012
     37 C         138.1109  137.9748  166.5880 C.3     1  UNL1        0.4186
     38 F         137.3445  136.6921  166.4564 F       1  UNL1       -0.1659
     39 F         139.0405  137.5311  165.4976 F       1  UNL1       -0.1659
     40 F         137.1813  138.4184  167.6783 F       1  UNL1       -0.1659
     41 C         140.1343  141.7230  169.5640 C.3     1  UNL1        0.4186
     42 F         140.3794  142.3145  170.9205 F       1  UNL1       -0.1659
     43 F         138.8228  141.1730  170.0409 F       1  UNL1       -0.1659
     44 F         141.4457  142.2731  169.0871 F       1  UNL1       -0.1659
@<TRIPOS>UNITY_ATOM_ATTR
19 1
charge -1
@<TRIPOS>BOND
     1    21    22    1
     2    22    23    1
     3    22    24    1
     4     1    22    1
     5     1    26    1
     6    26    27    2
     7    26    28   am
     8    28    30    1
     9    30    31    1
    10    31    32   ar
    11    32    33   ar
    12    33    37    1
    13    37    38    1
    14    37    39    1
    15    37    40    1
    16    33    34   ar
    17    34    35   ar
    18    35    41    1
    19    41    42    1
    20    41    43    1
    21    41    44    1
    22    35    36   ar
    23     1     2    1
    24     2     3    1
    25     3     4    1
    26     4     6    1
    27     6     7    1
    28     7     8    1
    29     8     9    1
    30     9    12    1
    31    12    13   ar
    32    13    14   ar
    33    14    15   ar
    34    15    16   ar
    35    16    18    1
    36    18    19   ar
    37    18    20   ar
    38    16    17   ar
    39     9    10    1
    40    10    11    1
    41     4     5    1
    42     5     1    1
    43    36    31   ar
    44    11     6    1
    45    17    12   ar
    46    24    25    1
    47    28    29    1
@<TRIPOS>MOLECULE
*****
 44 47 0 0 0
SMALL
GASTEIGER

@<TRIPOS>ATOM
      1 C         139.8120  142.2842  160.7880 C.3     1  UNL1        0.0925
      2 C         138.8867  142.5919  159.6483 C.3     1  UNL1        0.0123
      3 C         139.0635  141.5266  158.6072 C.3     1  UNL1        0.0165
      4 C         140.0981  140.5605  159.1035 C.3     1  UNL1        0.0581
      5 C         140.5607  141.0288  160.4514 C.3     1  UNL1        0.0268
      6 N         140.5846  139.3405  158.3791 N.3     1  UNL1       -0.2739
      7 C         141.9780  138.8361  158.6114 C.3     1  UNL1        0.0724
      8 C         142.4646  137.6160  157.8871 C.3     1  UNL1        0.0217
      9 C         141.5577  136.9003  156.9303 C.3     1  UNL1        0.0251
     10 C         140.1642  137.4047  156.6980 C.3     1  UNL1        0.0217
     11 C         139.6777  138.6248  157.4224 C.3     1  UNL1        0.0724
     12 C         142.0443  135.6802  156.2060 C.ar    1  UNL1       -0.0224
     13 C         141.4988  135.3462  154.8492 C.ar    1  UNL1       -0.0043
     14 C         141.9854  134.1262  154.1248 C.ar    1  UNL1       -0.0003
     15 C         143.0174  133.2401  154.7573 C.ar    1  UNL1        0.0011
     16 C         143.5628  133.5742  156.1142 C.ar    1  UNL1        0.0137
     17 C         143.0763  134.7943  156.8385 C.ar    1  UNL1       -0.0031
     18 C         144.5948  132.6882  156.7466 C.2     1  UNL1        0.0729
     19 O         145.1718  131.5392  155.9740 O.co2   1  UNL1       -0.5446
     20 O         145.0498  132.9512  158.1515 O.co2   1  UNL1       -0.5446
     21 C         137.9865  142.7750  161.7507 C.3     1  UNL1        0.0298
     22 C         139.2314  143.5297  161.3893 C.3     1  UNL1        0.0961
     23 C         140.1919  144.4601  161.2047 C.3     1  UNL1        0.0298
     24 O         138.6507  144.7753  161.9906 O.3     1  UNL1       -0.3863
     25 H         139.2845  145.5040  161.8999 H       1  UNL1        0.2102
     26 C         140.6159  142.2369  162.0535 C.2     1  UNL1        0.2240
     27 O         142.1119  142.1490  161.9888 O.2     1  UNL1       -0.2750
     28 N         139.9238  142.2775  163.3837 N.am    1  UNL1       -0.3004
     29 H         138.9419  142.3351  163.4262 H       1  UNL1        0.1497
     30 C         140.7277  142.2301  164.6492 C.3     1  UNL1        0.1163
     31 C         140.2137  141.4708  165.8364 C.ar    1  UNL1       -0.0027
     32 C         140.4589  141.9899  167.2222 C.ar    1  UNL1        0.0012
     33 C         139.9449  141.2306  168.4092 C.ar    1  UNL1        0.0711
     34 C         139.1856  139.9523  168.2105 C.ar    1  UNL1        0.0077
     35 C         138.9404  139.4332  166.8248 C.ar    1  UNL1        0.0711
     36 C         139.4544  140.1925  165.6377 C.ar    1  UNL1        0.0012
     37 C         140.1901  141.7496  169.7951 C.3     1  UNL1        0.4186
     38 F         140.4353  142.2686  171.1809 F       1  UNL1       -0.1659
     39 F         141.5760  142.1613  169.3956 F       1  UNL1       -0.1659
     40 F         138.8042  141.3378  170.1946 F       1  UNL1       -0.1659
     41 C         138.1812  138.1549  166.6261 C.3     1  UNL1        0.4186
     42 F         137.4219  136.8766  166.4274 F       1  UNL1       -0.1659
     43 F         137.2239  138.5551  167.7093 F       1  UNL1       -0.1659
     44 F         139.1384  137.7548  165.5428 F       1  UNL1       -0.1659
@<TRIPOS>UNITY_ATOM_ATTR
19 1
charge -1
@<TRIPOS>BOND
     1    21    22    1
     2    22    23    1
     3    22    24    1
     4     1    22    1
     5     1    26    1
     6    26    27    2
     7    26    28   am
     8    28    30    1
     9    30    31    1
    10    31    32   ar
    11    32    33   ar
    12    33    37    1
    13    37    38    1
    14    37    39    1
    15    37    40    1
    16    33    34   ar
    17    34    35   ar
    18    35    41    1
    19    41    42    1
    20    41    43    1
    21    41    44    1
    22    35    36   ar
    23     1     2    1
    24     2     3    1
    25     3     4    1
    26     4     6    1
    27     6     7    1
    28     7     8    1
    29     8     9    1
    30     9    12    1
    31    12    13   ar
    32    13    14   ar
    33    14    15   ar
    34    15    16   ar
    35    16    18    1
    36    18    19   ar
    37    18    20   ar
    38    16    17   ar
    39     9    10    1
    40    10    11    1
    41     4     5    1
    42     5     1    1
    43    36    31   ar
    44    11     6    1
    45    17    12   ar
    46    24    25    1
    47    28    29    1
@<TRIPOS>MOLECULE
*****
 44 47 0 0 0
SMALL
GASTEIGER

@<TRIPOS>ATOM
      1 C         142.0595  143.4777  162.1556 C.3     1  UNL1        0.0925
      2 C         142.1625  144.3408  160.9331 C.3     1  UNL1        0.0123
      3 C         142.3108  143.4414  159.7419 C.3     1  UNL1        0.0165
      4 C         142.2995  142.0224  160.2281 C.3     1  UNL1        0.0581
      5 C         142.1441  142.0449  161.7199 C.3     1  UNL1        0.0268
      6 N         142.4219  140.7963  159.3727 N.3     1  UNL1       -0.2739
      7 C         142.6105  140.9314  157.8908 C.3     1  UNL1        0.0724
      8 C         142.7330  139.7053  157.0355 C.3     1  UNL1        0.0217
      9 C         142.6668  138.3440  157.6621 C.3     1  UNL1        0.0251
     10 C         142.4782  138.2090  159.1441 C.3     1  UNL1        0.0217
     11 C         142.3557  139.4351  159.9994 C.3     1  UNL1        0.0724
     12 C         142.7893  137.1179  156.8067 C.ar    1  UNL1       -0.0224
     13 C         142.6189  137.2205  155.3200 C.ar    1  UNL1       -0.0043
     14 C         142.7414  135.9944  154.4646 C.ar    1  UNL1       -0.0003
     15 C         143.0342  134.6657  155.0960 C.ar    1  UNL1        0.0011
     16 C         143.2045  134.5630  156.5828 C.ar    1  UNL1        0.0137
     17 C         143.0821  135.7891  157.4382 C.ar    1  UNL1       -0.0031
     18 C         143.4973  133.2342  157.2142 C.2     1  UNL1        0.0729
     19 O         144.7144  133.0646  158.0744 O.co2   1  UNL1       -0.5446
     20 O         142.5730  132.0752  156.9855 O.co2   1  UNL1       -0.5446
     21 C         143.4075  144.7221  163.2206 C.3     1  UNL1        0.0298
     22 C         141.9485  144.7873  162.8785 C.3     1  UNL1        0.0961
     23 C         140.6503  145.1294  162.7372 C.3     1  UNL1        0.0298
     24 O         141.8375  146.0970  163.6014 O.3     1  UNL1       -0.3863
     25 H         140.9241  146.4190  163.5487 H       1  UNL1        0.2102
     26 C         141.9333  142.8884  163.5292 C.2     1  UNL1        0.2240
     27 O         140.8359  143.3460  164.4437 O.2     1  UNL1       -0.2750
     28 N         142.9045  141.8414  163.9883 N.am    1  UNL1       -0.3004
     29 H         143.6247  141.5411  163.3881 H       1  UNL1        0.1497
     30 C         142.7782  141.2521  165.3619 C.3     1  UNL1        0.1163
     31 C         141.5291  140.5187  165.7514 C.ar    1  UNL1       -0.0027
     32 C         140.8646  139.5966  164.7727 C.ar    1  UNL1        0.0012
     33 C         139.6155  138.8632  165.1623 C.ar    1  UNL1        0.0711
     34 C         139.0308  139.0520  166.5307 C.ar    1  UNL1        0.0077
     35 C         139.6953  139.9741  167.5095 C.ar    1  UNL1        0.0711
     36 C         140.9444  140.7075  167.1199 C.ar    1  UNL1        0.0012
     37 C         138.9509  137.9410  164.1835 C.3     1  UNL1        0.4186
     38 F         138.2864  137.0189  163.2047 F       1  UNL1       -0.1659
     39 F         139.3127  138.8699  163.0627 F       1  UNL1       -0.1659
     40 F         138.5892  137.0120  165.3042 F       1  UNL1       -0.1659
     41 C         139.1106  140.1629  168.8779 C.3     1  UNL1        0.4186
     42 F         138.5260  140.3517  170.2463 F       1  UNL1       -0.1659
     43 F         137.9516  139.2874  168.5035 F       1  UNL1       -0.1659
     44 F         140.2697  141.0384  169.2523 F       1  UNL1       -0.1659
@<TRIPOS>UNITY_ATOM_ATTR
19 1
charge -1
@<TRIPOS>BOND
     1    21    22    1
     2    22    23    1
     3    22    24    1
     4     1    22    1
     5     1    26    1
     6    26    27    2
     7    26    28   am
     8    28    30    1
     9    30    31    1
    10    31    32   ar
    11    32    33   ar
    12    33    37    1
    13    37    38    1
    14    37    39    1
    15    37    40    1
    16    33    34   ar
    17    34    35   ar
    18    35    41    1
    19    41    42    1
    20    41    43    1
    21    41    44    1
    22    35    36   ar
    23     1     2    1
    24     2     3    1
    25     3     4    1
    26     4     6    1
    27     6     7    1
    28     7     8    1
    29     8     9    1
    30     9    12    1
    31    12    13   ar
    32    13    14   ar
    33    14    15   ar
    34    15    16   ar
    35    16    18    1
    36    18    19   ar
    37    18    20   ar
    38    16    17   ar
    39     9    10    1
    40    10    11    1
    41     4     5    1
    42     5     1    1
    43    36    31   ar
    44    11     6    1
    45    17    12   ar
    46    24    25    1
    47    28    29    1
@<TRIPOS>MOLECULE
*****
 44 47 0 0 0
SMALL
GASTEIGER

@<TRIPOS>ATOM
      1 C         141.9986  142.4963  160.2190 C.3     1  UNL1        0.0925
      2 C         143.3004  142.8998  159.5927 C.3     1  UNL1        0.0123
      3 C         143.7739  141.7638  158.7351 C.3     1  UNL1        0.0165
      4 C         142.7647  140.6583  158.8314 C.3     1  UNL1        0.0581
      5 C         141.6675  141.1110  159.7486 C.3     1  UNL1        0.0268
      6 N         142.8395  139.3328  158.1332 N.3     1  UNL1       -0.2739
      7 C         142.6876  138.0628  158.9167 C.3     1  UNL1        0.0724
      8 C         142.7624  136.7373  158.2185 C.3     1  UNL1        0.0217
      9 C         142.9893  136.6819  156.7368 C.3     1  UNL1        0.0251
     10 C         143.1413  137.9520  155.9533 C.3     1  UNL1        0.0217
     11 C         143.0664  139.2775  156.6515 C.3     1  UNL1        0.0724
     12 C         143.0641  135.3564  156.0386 C.ar    1  UNL1       -0.0224
     13 C         142.2893  135.1298  154.7743 C.ar    1  UNL1       -0.0043
     14 C         142.3642  133.8044  154.0761 C.ar    1  UNL1       -0.0003
     15 C         143.2138  132.7054  154.6422 C.ar    1  UNL1        0.0011
     16 C         143.9887  132.9320  155.9065 C.ar    1  UNL1        0.0137
     17 C         143.9138  134.2575  156.6047 C.ar    1  UNL1       -0.0031
     18 C         144.8383  131.8330  156.4726 C.2     1  UNL1        0.0729
     19 O         145.0281  130.5597  155.7028 O.co2   1  UNL1       -0.5446
     20 O         145.4981  132.0075  157.8083 O.co2   1  UNL1       -0.5446
     21 C         141.6396  144.4765  159.5484 C.3     1  UNL1        0.0298
     22 C         142.0602  143.8567  160.8479 C.3     1  UNL1        0.0961
     23 C         142.4409  143.6118  162.1197 C.3     1  UNL1        0.0298
     24 O         142.1218  145.2172  161.4768 O.3     1  UNL1       -0.3863
     25 H         142.3915  145.1326  162.4047 H       1  UNL1        0.2102
     26 C         140.7096  142.3772  160.9769 C.2     1  UNL1        0.2240
     27 O         139.6165  143.3813  160.7600 O.2     1  UNL1       -0.2750
     28 N         140.5137  141.2541  161.9517 N.am    1  UNL1       -0.3004
     29 H         141.2311  140.5951  162.0940 H       1  UNL1        0.1497
     30 C         139.2247  141.1350  162.7095 C.3     1  UNL1        0.1163
     31 C         139.2416  140.7816  164.1672 C.ar    1  UNL1       -0.0027
     32 C         138.5918  139.5149  164.6394 C.ar    1  UNL1        0.0012
     33 C         138.6087  139.1615  166.0971 C.ar    1  UNL1        0.0711
     34 C         139.2754  140.0750  167.0826 C.ar    1  UNL1        0.0077
     35 C         139.9253  141.3417  166.6104 C.ar    1  UNL1        0.0711
     36 C         139.9084  141.6950  165.1527 C.ar    1  UNL1        0.0012
     37 C         137.9588  137.8947  166.5694 C.3     1  UNL1        0.4186
     38 F         137.3089  136.6280  167.0417 F       1  UNL1       -0.1659
     39 F         137.3352  138.6406  167.7117 F       1  UNL1       -0.1659
     40 F         138.5824  137.1489  165.4271 F       1  UNL1       -0.1659
     41 C         140.5920  142.2551  167.5958 C.3     1  UNL1        0.4186
     42 F         141.2588  143.1685  168.5813 F       1  UNL1       -0.1659
     43 F         140.1272  143.4441  166.8083 F       1  UNL1       -0.1659
     44 F         141.0569  141.0661  168.3833 F       1  UNL1       -0.1659
@<TRIPOS>UNITY_ATOM_ATTR
19 1
charge -1
@<TRIPOS>BOND
     1    21    22    1
     2    22    23    1
     3    22    24    1
     4     1    22    1
     5     1    26    1
     6    26    27    2
     7    26    28   am
     8    28    30    1
     9    30    31    1
    10    31    32   ar
    11    32    33   ar
    12    33    37    1
    13    37    38    1
    14    37    39    1
    15    37    40    1
    16    33    34   ar
    17    34    35   ar
    18    35    41    1
    19    41    42    1
    20    41    43    1
    21    41    44    1
    22    35    36   ar
    23     1     2    1
    24     2     3    1
    25     3     4    1
    26     4     6    1
    27     6     7    1
    28     7     8    1
    29     8     9    1
    30     9    12    1
    31    12    13   ar
    32    13    14   ar
    33    14    15   ar
    34    15    16   ar
    35    16    18    1
    36    18    19   ar
    37    18    20   ar
    38    16    17   ar
    39     9    10    1
    40    10    11    1
    41     4     5    1
    42     5     1    1
    43    36    31   ar
    44    11     6    1
    45    17    12   ar
    46    24    25    1
    47    28    29    1
@<TRIPOS>MOLECULE
*****
 44 47 0 0 0
SMALL
GASTEIGER

@<TRIPOS>ATOM
      1 C         140.5290  139.7338  161.2508 C.3     1  UNL1        0.0925
      2 C         140.1106  138.9035  160.0737 C.3     1  UNL1        0.0123
      3 C         139.8995  139.8242  158.9086 C.3     1  UNL1        0.0165
      4 C         140.1874  141.2236  159.3654 C.3     1  UNL1        0.0581
      5 C         140.5764  141.1677  160.8131 C.3     1  UNL1        0.0268
      6 N         140.1013  142.4615  158.5227 N.3     1  UNL1       -0.2739
      7 C         139.4524  142.4054  157.1716 C.3     1  UNL1        0.0724
      8 C         139.3663  143.6433  156.3289 C.3     1  UNL1        0.0217
      9 C         139.9292  144.9374  156.8373 C.3     1  UNL1        0.0251
     10 C         140.5782  144.9935  158.1886 C.3     1  UNL1        0.0217
     11 C         140.6643  143.7556  159.0313 C.3     1  UNL1        0.0724
     12 C         139.8432  146.1753  155.9946 C.ar    1  UNL1       -0.0224
     13 C         140.4518  146.1931  154.6237 C.ar    1  UNL1       -0.0043
     14 C         140.3657  147.4310  153.7810 C.ar    1  UNL1       -0.0003
     15 C         139.6711  148.6511  154.3092 C.ar    1  UNL1        0.0011
     16 C         139.0625  148.6332  155.6801 C.ar    1  UNL1        0.0137
     17 C         139.1485  147.3953  156.5228 C.ar    1  UNL1       -0.0031
     18 C         138.3678  149.8533  156.2083 C.2     1  UNL1        0.0729
     19 O         137.9729  149.9248  157.6535 O.co2   1  UNL1       -0.5446
     20 O         138.0682  151.0018  155.2911 O.co2   1  UNL1       -0.5446
     21 C         139.1691  138.6355  162.4526 C.3     1  UNL1        0.0298
     22 C         140.5708  138.4159  161.9659 C.3     1  UNL1        0.0961
     23 C         141.8040  137.9371  161.6966 C.3     1  UNL1        0.0298
     24 O         140.6126  137.0980  162.6810 O.3     1  UNL1       -0.3863
     25 H         141.4763  136.6800  162.5384 H       1  UNL1        0.2102
     26 C         140.9561  140.2887  162.5773 C.2     1  UNL1        0.2240
     27 O         142.1256  139.6886  163.2998 O.2     1  UNL1       -0.2750
     28 N         140.2136  141.4436  163.1814 N.am    1  UNL1       -0.3004
     29 H         139.4459  141.8375  162.7072 H       1  UNL1        0.1497
     30 C         140.6406  141.9985  164.5079 C.3     1  UNL1        0.1163
     31 C         140.1734  141.3504  165.7775 C.ar    1  UNL1       -0.0027
     32 C         140.5885  141.9141  167.1041 C.ar    1  UNL1        0.0012
     33 C         140.1213  141.2660  168.3736 C.ar    1  UNL1        0.0711
     34 C         139.2390  140.0543  168.3165 C.ar    1  UNL1        0.0077
     35 C         138.8239  139.4907  166.9899 C.ar    1  UNL1        0.0711
     36 C         139.2911  140.1387  165.7204 C.ar    1  UNL1        0.0012
     37 C         140.5364  141.8297  169.7003 C.3     1  UNL1        0.4186
     38 F         140.9515  142.3933  171.0270 F       1  UNL1       -0.1659
     39 F         140.6788  140.4399  170.2462 F       1  UNL1       -0.1659
     40 F         140.3940  143.2195  169.1544 F       1  UNL1       -0.1659
     41 C         137.9416  138.2790  166.9328 C.3     1  UNL1        0.4186
     42 F         137.0592  137.0673  166.8757 F       1  UNL1       -0.1659
     43 F         137.3011  138.6843  168.2272 F       1  UNL1       -0.1659
     44 F         138.5821  137.8736  165.6384 F       1  UNL1       -0.1659
@<TRIPOS>UNITY_ATOM_ATTR
19 1
charge -1
@<TRIPOS>BOND
     1    21    22    1
     2    22    23    1
     3    22    24    1
     4     1    22    1
     5     1    26    1
     6    26    27    2
     7    26    28   am
     8    28    30    1
     9    30    31    1
    10    31    32   ar
    11    32    33   ar
    12    33    37    1
    13    37    38    1
    14    37    39    1
    15    37    40    1
    16    33    34   ar
    17    34    35   ar
    18    35    41    1
    19    41    42    1
    20    41    43    1
    21    41    44    1
    22    35    36   ar
    23     1     2    1
    24     2     3    1
    25     3     4    1
    26     4     6    1
    27     6     7    1
    28     7     8    1
    29     8     9    1
    30     9    12    1
    31    12    13   ar
    32    13    14   ar
    33    14    15   ar
    34    15    16   ar
    35    16    18    1
    36    18    19   ar
    37    18    20   ar
    38    16    17   ar
    39     9    10    1
    40    10    11    1
    41     4     5    1
    42     5     1    1
    43    36    31   ar
    44    11     6    1
    45    17    12   ar
    46    24    25    1
    47    28    29    1
