@<TRIPOS>MOLECULE
*****
 30 32 0 0 0
SMALL
GASTEIGER

@<TRIPOS>ATOM
      1 C         140.1329  141.4464  165.7751 C.ar    1  UNL1        0.1358
      2 C         141.2797  141.2342  164.8319 C.ar    1  UNL1        0.0346
      3 C         141.0160  140.9442  163.3840 C.ar    1  UNL1        0.0057
      4 C         139.6056  140.8666  162.8794 C.ar    1  UNL1        0.0342
      5 C         138.4588  141.0789  163.8226 C.ar    1  UNL1        0.1268
      6 N         137.0484  141.0012  163.3180 N.pl3   1  UNL1       -0.3426
      7 N         138.7224  141.3688  165.2705 N.ar    1  UNL1       -0.2163
      8 H         136.8753  140.8109  162.3677 H       1  UNL1        0.1437
      9 H         136.2957  141.1406  163.9371 H       1  UNL1        0.1437
     10 C         139.3420  140.5767  161.4314 C.ar    1  UNL1        0.0369
     11 C         138.8434  141.6648  160.5273 C.ar    1  UNL1        0.0031
     12 C         138.5798  141.3748  159.0794 C.ar    1  UNL1        0.0002
     13 C         138.8148  139.9967  158.5356 C.ar    1  UNL1        0.0031
     14 C         139.3134  138.9086  159.4398 C.ar    1  UNL1        0.0372
     15 C         139.5769  139.1986  160.8876 C.ar    1  UNL1        0.1468
     16 O         140.0755  138.1104  161.7918 O.3     1  UNL1       -0.4045
     17 C         139.2624  137.6920  162.9808 C.3     1  UNL1        0.5753
     18 F         138.4493  137.2735  164.1698 F       1  UNL1       -0.1328
     19 F         138.0238  137.6945  162.1347 F       1  UNL1       -0.1328
     20 F         140.5010  137.6895  163.8270 F       1  UNL1       -0.1328
     21 C         139.9065  140.7901  168.2788 C.2     1  UNL1        0.2550
     22 O         139.1529  139.5539  167.8865 O.2     1  UNL1       -0.2696
     23 N         140.3965  141.7364  167.2231 N.am    1  UNL1       -0.2656
     24 H         140.8911  142.5478  167.4805 H       1  UNL1        0.1566
     25 C         140.3065  143.7466  169.6011 C.3     1  UNL1        0.0558
     26 C         140.3540  142.4390  170.3345 C.ar    1  UNL1        0.1055
     27 N         140.5936  142.2607  171.8045 N.ar    1  UNL1       -0.0811
     28 O         140.5579  140.7916  172.1052 O.2     1  UNL1       -0.3503
     29 C         140.2961  140.0619  170.8210 C.ar    1  UNL1        0.2179
     30 C         140.1701  141.0801  169.7267 C.ar    1  UNL1        0.1106
@<TRIPOS>BOND
     1    25    26    1
     2    26    27   ar
     3    27    28   ar
     4    28    29   ar
     5    29    30   ar
     6    30    21    1
     7    21    22    2
     8    21    23   am
     9    23     1    1
    10     1     2   ar
    11     2     3   ar
    12     3     4   ar
    13     4    10    1
    14    10    11   ar
    15    11    12   ar
    16    12    13   ar
    17    13    14   ar
    18    14    15   ar
    19    15    16    1
    20    16    17    1
    21    17    18    1
    22    17    19    1
    23    17    20    1
    24     4     5   ar
    25     5     6    1
    26     5     7   ar
    27    30    26   ar
    28     7     1   ar
    29    15    10   ar
    30    23    24    1
    31     6     8    1
    32     6     9    1
@<TRIPOS>MOLECULE
*****
 30 32 0 0 0
SMALL
GASTEIGER

@<TRIPOS>ATOM
      1 C         142.2581  140.5195  166.1494 C.ar    1  UNL1        0.1358
      2 C         143.2317  139.4501  165.7512 C.ar    1  UNL1        0.0346
      3 C         143.3844  139.0750  164.3069 C.ar    1  UNL1        0.0057
      4 C         142.5635  139.7692  163.2609 C.ar    1  UNL1        0.0342
      5 C         141.5900  140.8385  163.6591 C.ar    1  UNL1        0.1268
      6 N         140.7691  141.5327  162.6130 N.pl3   1  UNL1       -0.3426
      7 N         141.4372  141.2137  165.1033 N.ar    1  UNL1       -0.2163
      8 H         140.8693  141.2865  161.6651 H       1  UNL1        0.1437
      9 H         140.1301  142.2346  162.8744 H       1  UNL1        0.1437
     10 C         142.7163  139.3940  161.8166 C.ar    1  UNL1        0.0369
     11 C         143.5301  140.2579  160.8993 C.ar    1  UNL1        0.0031
     12 C         143.6828  139.8827  159.4550 C.ar    1  UNL1        0.0002
     13 C         143.0218  138.6436  158.9280 C.ar    1  UNL1        0.0031
     14 C         142.2080  137.7797  159.8454 C.ar    1  UNL1        0.0372
     15 C         142.0553  138.1549  161.2896 C.ar    1  UNL1        0.1468
     16 O         141.2415  137.2910  162.2070 O.3     1  UNL1       -0.4045
     17 C         139.8595  137.7154  162.6070 C.3     1  UNL1        0.5753
     18 F         138.4775  138.1398  163.0071 F       1  UNL1       -0.1328
     19 F         140.2422  137.5988  164.0527 F       1  UNL1       -0.1328
     20 F         139.4768  137.8320  161.1613 F       1  UNL1       -0.1328
     21 C         140.8192  140.6090  168.3108 C.2     1  UNL1        0.2550
     22 O         139.6858  139.9482  167.5837 O.2     1  UNL1       -0.2696
     23 N         142.1054  140.8947  167.5937 N.am    1  UNL1       -0.2656
     24 H         142.8492  141.3284  168.0710 H       1  UNL1        0.1566
     25 C         140.4508  143.6340  169.4783 C.3     1  UNL1        0.0558
     26 C         140.4971  142.3747  170.2917 C.ar    1  UNL1        0.1055
     27 N         140.3822  142.2846  171.7846 N.ar    1  UNL1       -0.0811
     28 O         140.4806  140.8384  172.1707 O.2     1  UNL1       -0.3503
     29 C         140.6563  140.0347  170.9163 C.ar    1  UNL1        0.2179
     30 C         140.6665  140.9842  169.7551 C.ar    1  UNL1        0.1106
@<TRIPOS>BOND
     1    25    26    1
     2    26    27   ar
     3    27    28   ar
     4    28    29   ar
     5    29    30   ar
     6    30    21    1
     7    21    22    2
     8    21    23   am
     9    23     1    1
    10     1     2   ar
    11     2     3   ar
    12     3     4   ar
    13     4    10    1
    14    10    11   ar
    15    11    12   ar
    16    12    13   ar
    17    13    14   ar
    18    14    15   ar
    19    15    16    1
    20    16    17    1
    21    17    18    1
    22    17    19    1
    23    17    20    1
    24     4     5   ar
    25     5     6    1
    26     5     7   ar
    27    30    26   ar
    28     7     1   ar
    29    15    10   ar
    30    23    24    1
    31     6     8    1
    32     6     9    1
@<TRIPOS>MOLECULE
*****
 30 32 0 0 0
SMALL
GASTEIGER

@<TRIPOS>ATOM
      1 C         140.0377  141.7481  165.7468 C.ar    1  UNL1        0.1358
      2 C         141.1758  141.6263  164.7773 C.ar    1  UNL1        0.0346
      3 C         140.8989  141.4107  163.3190 C.ar    1  UNL1        0.0057
      4 C         139.4840  141.3168  162.8301 C.ar    1  UNL1        0.0342
      5 C         138.3459  141.4385  163.7995 C.ar    1  UNL1        0.1268
      6 N         136.9309  141.3446  163.3106 N.pl3   1  UNL1       -0.3426
      7 N         138.6227  141.6542  165.2579 N.ar    1  UNL1       -0.2163
      8 H         136.7492  141.2031  162.3535 H       1  UNL1        0.1437
      9 H         136.1839  141.4246  163.9469 H       1  UNL1        0.1437
     10 C         139.2071  141.1011  161.3717 C.ar    1  UNL1        0.0369
     11 C         139.4817  139.7660  160.7456 C.ar    1  UNL1        0.0031
     12 C         139.2049  139.5504  159.2871 C.ar    1  UNL1        0.0002
     13 C         138.6534  140.6699  158.4549 C.ar    1  UNL1        0.0031
     14 C         138.3788  142.0050  159.0811 C.ar    1  UNL1        0.0372
     15 C         138.6556  142.2206  160.5394 C.ar    1  UNL1        0.1468
     16 O         138.3810  143.5558  161.1656 O.3     1  UNL1       -0.4045
     17 C         139.5191  144.4095  161.6411 C.3     1  UNL1        0.5753
     18 F         140.6571  145.2631  162.1166 F       1  UNL1       -0.1328
     19 F         140.2234  144.1988  160.3336 F       1  UNL1       -0.1328
     20 F         138.8148  144.6201  162.9486 F       1  UNL1       -0.1328
     21 C         139.8896  140.9339  168.2095 C.2     1  UNL1        0.2550
     22 O         139.1877  139.6884  167.7556 O.2     1  UNL1       -0.2696
     23 N         140.3146  141.9637  167.2052 N.am    1  UNL1       -0.2656
     24 H         140.7752  142.7812  167.5032 H       1  UNL1        0.1566
     25 C         140.3227  143.8179  169.6738 C.3     1  UNL1        0.0558
     26 C         140.3655  142.4752  170.3410 C.ar    1  UNL1        0.1055
     27 N         140.6149  142.2223  171.7983 N.ar    1  UNL1       -0.0811
     28 O         140.5700  140.7404  172.0260 O.2     1  UNL1       -0.3503
     29 C         140.2928  140.0773  170.7093 C.ar    1  UNL1        0.2179
     30 C         140.1664  141.1496  169.6680 C.ar    1  UNL1        0.1106
@<TRIPOS>BOND
     1    25    26    1
     2    26    27   ar
     3    27    28   ar
     4    28    29   ar
     5    29    30   ar
     6    30    21    1
     7    21    22    2
     8    21    23   am
     9    23     1    1
    10     1     2   ar
    11     2     3   ar
    12     3     4   ar
    13     4    10    1
    14    10    11   ar
    15    11    12   ar
    16    12    13   ar
    17    13    14   ar
    18    14    15   ar
    19    15    16    1
    20    16    17    1
    21    17    18    1
    22    17    19    1
    23    17    20    1
    24     4     5   ar
    25     5     6    1
    26     5     7   ar
    27    30    26   ar
    28     7     1   ar
    29    15    10   ar
    30    23    24    1
    31     6     8    1
    32     6     9    1
@<TRIPOS>MOLECULE
*****
 30 32 0 0 0
SMALL
GASTEIGER

@<TRIPOS>ATOM
      1 C         140.3809  142.8813  165.8291 C.ar    1  UNL1        0.1358
      2 C         141.2999  142.1365  164.9068 C.ar    1  UNL1        0.0346
      3 C         141.0521  142.1522  163.4275 C.ar    1  UNL1        0.0057
      4 C         139.8854  142.9128  162.8705 C.ar    1  UNL1        0.0342
      5 C         138.9664  143.6576  163.7928 C.ar    1  UNL1        0.1268
      6 N         137.7996  144.4182  163.2358 N.pl3   1  UNL1       -0.3426
      7 N         139.2141  143.6419  165.2721 N.ar    1  UNL1       -0.2163
      8 H         137.6370  144.4285  162.2649 H       1  UNL1        0.1437
      9 H         137.1965  144.9070  163.8412 H       1  UNL1        0.1437
     10 C         139.6376  142.9285  161.3911 C.ar    1  UNL1        0.0369
     11 C         140.5851  143.6507  160.4797 C.ar    1  UNL1        0.0031
     12 C         140.3373  143.6665  159.0003 C.ar    1  UNL1        0.0002
     13 C         139.1422  142.9600  158.4325 C.ar    1  UNL1        0.0031
     14 C         138.1947  142.2377  159.3440 C.ar    1  UNL1        0.0372
     15 C         138.4425  142.2220  160.8233 C.ar    1  UNL1        0.1468
     16 O         137.4950  141.4998  161.7348 O.3     1  UNL1       -0.4045
     17 C         137.9166  140.2193  162.3925 C.3     1  UNL1        0.5753
     18 F         138.3381  138.9387  163.0502 F       1  UNL1       -0.1328
     19 F         138.4463  139.7200  161.0810 F       1  UNL1       -0.1328
     20 F         137.3868  140.7185  163.7041 F       1  UNL1       -0.1328
     21 C         140.2118  141.6791  168.1261 C.2     1  UNL1        0.2550
     22 O         139.5472  140.5084  167.4645 O.2     1  UNL1       -0.2696
     23 N         140.6286  142.8656  167.3084 N.am    1  UNL1       -0.2656
     24 H         141.0648  143.6339  167.7427 H       1  UNL1        0.1566
     25 C         142.0121  139.4922  169.7464 C.3     1  UNL1        0.0558
     26 C         141.2870  140.6582  170.3502 C.ar    1  UNL1        0.1055
     27 N         141.2621  141.0237  171.8048 N.ar    1  UNL1       -0.0811
     28 O         140.4192  142.2548  171.9591 O.2     1  UNL1       -0.3503
     29 C         139.9231  142.6502  170.5997 C.ar    1  UNL1        0.2179
     30 C         140.4595  141.6634  169.6055 C.ar    1  UNL1        0.1106
@<TRIPOS>BOND
     1    25    26    1
     2    26    27   ar
     3    27    28   ar
     4    28    29   ar
     5    29    30   ar
     6    30    21    1
     7    21    22    2
     8    21    23   am
     9    23     1    1
    10     1     2   ar
    11     2     3   ar
    12     3     4   ar
    13     4    10    1
    14    10    11   ar
    15    11    12   ar
    16    12    13   ar
    17    13    14   ar
    18    14    15   ar
    19    15    16    1
    20    16    17    1
    21    17    18    1
    22    17    19    1
    23    17    20    1
    24     4     5   ar
    25     5     6    1
    26     5     7   ar
    27    30    26   ar
    28     7     1   ar
    29    15    10   ar
    30    23    24    1
    31     6     8    1
    32     6     9    1
@<TRIPOS>MOLECULE
*****
 30 32 0 0 0
SMALL
GASTEIGER

@<TRIPOS>ATOM
      1 C         140.1169  142.0091  165.6863 C.ar    1  UNL1        0.1358
      2 C         138.7993  142.5179  165.1814 C.ar    1  UNL1        0.0346
      3 C         138.4246  142.3294  163.7413 C.ar    1  UNL1        0.0057
      4 C         139.3675  141.6321  162.8060 C.ar    1  UNL1        0.0342
      5 C         140.6851  141.1232  163.3109 C.ar    1  UNL1        0.1268
      6 N         141.6280  140.4258  162.3757 N.pl3   1  UNL1       -0.3426
      7 N         141.0598  141.3117  164.7511 N.ar    1  UNL1       -0.2163
      8 H         141.3820  140.3021  161.4305 H       1  UNL1        0.1437
      9 H         142.4928  140.0918  162.7071 H       1  UNL1        0.1437
     10 C         138.9927  141.4436  161.3658 C.ar    1  UNL1        0.0369
     11 C         139.4609  142.4267  160.3342 C.ar    1  UNL1        0.0031
     12 C         139.0861  142.2382  158.8940 C.ar    1  UNL1        0.0002
     13 C         138.2432  141.0666  158.4855 C.ar    1  UNL1        0.0031
     14 C         137.7750  140.0835  159.5173 C.ar    1  UNL1        0.0372
     15 C         138.1498  140.2720  160.9574 C.ar    1  UNL1        0.1468
     16 O         137.6816  139.2889  161.9891 O.3     1  UNL1       -0.4045
     17 C         138.6227  138.2439  162.5108 C.3     1  UNL1        0.5753
     18 F         139.5639  137.1988  163.0324 F       1  UNL1       -0.1328
     19 F         138.3573  138.7049  163.9133 F       1  UNL1       -0.1328
     20 F         138.8882  137.7828  161.1083 F       1  UNL1       -0.1328
     21 C         140.0746  141.1825  168.1490 C.2     1  UNL1        0.2550
     22 O         139.2828  139.9789  167.7315 O.2     1  UNL1       -0.2696
     23 N         140.4917  142.1975  167.1265 N.am    1  UNL1       -0.2656
     24 H         141.0114  142.9875  167.4006 H       1  UNL1        0.1566
     25 C         142.1910  139.3582  169.8350 C.3     1  UNL1        0.0558
     26 C         141.4222  140.5324  170.3642 C.ar    1  UNL1        0.1055
     27 N         141.4911  141.0743  171.7612 N.ar    1  UNL1       -0.0811
     28 O         140.5609  142.2478  171.8497 O.2     1  UNL1       -0.3503
     29 C         139.9171  142.4311  170.5072 C.ar    1  UNL1        0.2179
     30 C         140.4494  141.3709  169.5892 C.ar    1  UNL1        0.1106
@<TRIPOS>BOND
     1    25    26    1
     2    26    27   ar
     3    27    28   ar
     4    28    29   ar
     5    29    30   ar
     6    30    21    1
     7    21    22    2
     8    21    23   am
     9    23     1    1
    10     1     2   ar
    11     2     3   ar
    12     3     4   ar
    13     4    10    1
    14    10    11   ar
    15    11    12   ar
    16    12    13   ar
    17    13    14   ar
    18    14    15   ar
    19    15    16    1
    20    16    17    1
    21    17    18    1
    22    17    19    1
    23    17    20    1
    24     4     5   ar
    25     5     6    1
    26     5     7   ar
    27    30    26   ar
    28     7     1   ar
    29    15    10   ar
    30    23    24    1
    31     6     8    1
    32     6     9    1
@<TRIPOS>MOLECULE
*****
 30 32 0 0 0
SMALL
GASTEIGER

@<TRIPOS>ATOM
      1 C         142.3689  142.5633  165.5063 C.ar    1  UNL1        0.1358
      2 C         141.5900  141.7147  164.5454 C.ar    1  UNL1        0.0346
      3 C         141.5746  142.0568  163.0851 C.ar    1  UNL1        0.0057
      4 C         142.3382  143.2474  162.5856 C.ar    1  UNL1        0.0342
      5 C         143.1171  144.0959  163.5464 C.ar    1  UNL1        0.1268
      6 N         143.8806  145.2865  163.0469 N.pl3   1  UNL1       -0.3426
      7 N         143.1324  143.7539  165.0068 N.ar    1  UNL1       -0.2163
      8 H         143.8705  145.5110  162.0884 H       1  UNL1        0.1437
      9 H         144.3918  145.8434  163.6775 H       1  UNL1        0.1437
     10 C         142.3228  143.5894  161.1251 C.ar    1  UNL1        0.0369
     11 C         143.2411  142.8756  160.1779 C.ar    1  UNL1        0.0031
     12 C         143.2258  143.2176  158.7175 C.ar    1  UNL1        0.0002
     13 C         142.2920  144.2734  158.2043 C.ar    1  UNL1        0.0031
     14 C         141.3737  144.9872  159.1515 C.ar    1  UNL1        0.0372
     15 C         141.3891  144.6452  160.6119 C.ar    1  UNL1        0.1468
     16 O         140.4707  145.3590  161.5591 O.3     1  UNL1       -0.4045
     17 C         139.3075  144.6324  162.1666 C.3     1  UNL1        0.5753
     18 F         138.1443  143.9058  162.7740 F       1  UNL1       -0.1328
     19 F         139.4918  145.4025  163.4406 F       1  UNL1       -0.1328
     20 F         139.1232  143.8623  160.8926 F       1  UNL1       -0.1328
     21 C         141.2260  142.6051  167.8391 C.2     1  UNL1        0.2550
     22 O         140.0523  143.3309  167.2512 O.2     1  UNL1       -0.2696
     23 N         142.3842  142.2213  166.9668 N.am    1  UNL1       -0.2656
     24 H         143.1545  141.7449  167.3527 H       1  UNL1        0.1566
     25 C         139.3398  140.3846  169.3092 C.3     1  UNL1        0.0558
     26 C         140.3744  141.2424  169.9753 C.ar    1  UNL1        0.1055
     27 N         140.7236  141.2302  171.4340 N.ar    1  UNL1       -0.0811
     28 O         141.8065  142.2434  171.6599 O.2     1  UNL1       -0.3503
     29 C         142.1265  142.8818  170.3407 C.ar    1  UNL1        0.2179
     30 C         141.2414  142.2631  169.2996 C.ar    1  UNL1        0.1106
@<TRIPOS>BOND
     1    25    26    1
     2    26    27   ar
     3    27    28   ar
     4    28    29   ar
     5    29    30   ar
     6    30    21    1
     7    21    22    2
     8    21    23   am
     9    23     1    1
    10     1     2   ar
    11     2     3   ar
    12     3     4   ar
    13     4    10    1
    14    10    11   ar
    15    11    12   ar
    16    12    13   ar
    17    13    14   ar
    18    14    15   ar
    19    15    16    1
    20    16    17    1
    21    17    18    1
    22    17    19    1
    23    17    20    1
    24     4     5   ar
    25     5     6    1
    26     5     7   ar
    27    30    26   ar
    28     7     1   ar
    29    15    10   ar
    30    23    24    1
    31     6     8    1
    32     6     9    1
@<TRIPOS>MOLECULE
*****
 30 32 0 0 0
SMALL
GASTEIGER

@<TRIPOS>ATOM
      1 C         140.0504  140.3781  166.0498 C.ar    1  UNL1        0.1358
      2 C         138.7790  139.7610  165.5473 C.ar    1  UNL1        0.0346
      3 C         138.5448  139.6215  164.0723 C.ar    1  UNL1        0.0057
      4 C         139.5822  140.0990  163.0998 C.ar    1  UNL1        0.0342
      5 C         140.8537  140.7161  163.6022 C.ar    1  UNL1        0.1268
      6 N         141.8911  141.1936  162.6297 N.pl3   1  UNL1       -0.3426
      7 N         141.0878  140.8556  165.0772 N.ar    1  UNL1       -0.2163
      8 H         141.7374  141.1020  161.6616 H       1  UNL1        0.1437
      9 H         142.7256  141.5986  162.9595 H       1  UNL1        0.1437
     10 C         139.3481  139.9594  161.6247 C.ar    1  UNL1        0.0369
     11 C         138.6960  141.0730  160.8602 C.ar    1  UNL1        0.0031
     12 C         138.4618  140.9335  159.3851 C.ar    1  UNL1        0.0002
     13 C         138.8798  139.6802  158.6746 C.ar    1  UNL1        0.0031
     14 C         139.5319  138.5666  159.4393 C.ar    1  UNL1        0.0372
     15 C         139.7660  138.7062  160.9143 C.ar    1  UNL1        0.1468
     16 O         140.4181  137.5925  161.6789 O.3     1  UNL1       -0.4045
     17 C         141.8817  137.6599  162.0001 C.3     1  UNL1        0.5753
     18 F         143.3454  137.7273  162.3213 F       1  UNL1       -0.1328
     19 F         141.5675  137.5237  163.4605 F       1  UNL1       -0.1328
     20 F         142.1960  137.7961  160.5397 F       1  UNL1       -0.1328
     21 C         140.4152  141.8804  168.1379 C.2     1  UNL1        0.2550
     22 O         140.3117  143.1036  167.2759 O.2     1  UNL1       -0.2696
     23 N         140.2846  140.5177  167.5249 N.am    1  UNL1       -0.2656
     24 H         140.3525  139.7148  168.0906 H       1  UNL1        0.1566
     25 C         143.2887  141.6000  169.6589 C.3     1  UNL1        0.0558
     26 C         141.9702  141.8911  170.3121 C.ar    1  UNL1        0.1055
     27 N         141.7409  142.1044  171.7790 N.ar    1  UNL1       -0.0811
     28 O         140.2784  142.3651  171.9865 O.2     1  UNL1       -0.3503
     29 C         139.6037  142.3129  170.6477 C.ar    1  UNL1        0.2179
     30 C         140.6494  142.0200  169.6129 C.ar    1  UNL1        0.1106
@<TRIPOS>BOND
     1    25    26    1
     2    26    27   ar
     3    27    28   ar
     4    28    29   ar
     5    29    30   ar
     6    30    21    1
     7    21    22    2
     8    21    23   am
     9    23     1    1
    10     1     2   ar
    11     2     3   ar
    12     3     4   ar
    13     4    10    1
    14    10    11   ar
    15    11    12   ar
    16    12    13   ar
    17    13    14   ar
    18    14    15   ar
    19    15    16    1
    20    16    17    1
    21    17    18    1
    22    17    19    1
    23    17    20    1
    24     4     5   ar
    25     5     6    1
    26     5     7   ar
    27    30    26   ar
    28     7     1   ar
    29    15    10   ar
    30    23    24    1
    31     6     8    1
    32     6     9    1
@<TRIPOS>MOLECULE
*****
 30 32 0 0 0
SMALL
GASTEIGER

@<TRIPOS>ATOM
      1 C         141.1877  142.5191  165.3644 C.ar    1  UNL1        0.1358
      2 C         141.1885  141.2780  164.5221 C.ar    1  UNL1        0.0346
      3 C         141.7306  141.3207  163.1242 C.ar    1  UNL1        0.0057
      4 C         142.2719  142.6046  162.5686 C.ar    1  UNL1        0.0342
      5 C         142.2710  143.8457  163.4109 C.ar    1  UNL1        0.1268
      6 N         142.8123  145.1296  162.8552 N.pl3   1  UNL1       -0.3426
      7 N         141.7290  143.8030  164.8088 N.ar    1  UNL1       -0.2163
      8 H         143.1681  145.1576  161.9377 H       1  UNL1        0.1437
      9 H         142.8118  145.9442  163.4081 H       1  UNL1        0.1437
     10 C         142.8140  142.6472  161.1706 C.ar    1  UNL1        0.0369
     11 C         141.8777  142.7869  160.0070 C.ar    1  UNL1        0.0031
     12 C         142.4198  142.8296  158.6090 C.ar    1  UNL1        0.0002
     13 C         143.8982  142.7326  158.3746 C.ar    1  UNL1        0.0031
     14 C         144.8345  142.5929  159.5382 C.ar    1  UNL1        0.0372
     15 C         144.2924  142.5502  160.9361 C.ar    1  UNL1        0.1468
     16 O         145.2287  142.4105  162.0998 O.3     1  UNL1       -0.4045
     17 C         145.2207  141.1563  162.9224 C.3     1  UNL1        0.5753
     18 F         145.2127  139.9021  163.7451 F       1  UNL1       -0.1328
     19 F         145.5914  141.9518  164.1389 F       1  UNL1       -0.1328
     20 F         144.8499  140.3608  161.7060 F       1  UNL1       -0.1328
     21 C         141.5762  142.2780  167.9220 C.2     1  UNL1        0.2550
     22 O         143.0489  142.1223  167.6836 O.2     1  UNL1       -0.2696
     23 N         140.6456  142.4764  166.7625 N.am    1  UNL1       -0.2656
     24 H         139.6790  142.5787  166.9190 H       1  UNL1        0.1566
     25 C         141.6800  139.7174  169.9423 C.3     1  UNL1        0.0558
     26 C         141.0818  141.0584  170.2486 C.ar    1  UNL1        0.1055
     27 N         140.4264  141.4578  171.5373 N.ar    1  UNL1       -0.0811
     28 O         139.9735  142.8817  171.4052 O.2     1  UNL1       -0.3503
     29 C         140.3491  143.3623  170.0347 C.ar    1  UNL1        0.2179
     30 C         141.0341  142.2354  169.3200 C.ar    1  UNL1        0.1106
@<TRIPOS>BOND
     1    25    26    1
     2    26    27   ar
     3    27    28   ar
     4    28    29   ar
     5    29    30   ar
     6    30    21    1
     7    21    22    2
     8    21    23   am
     9    23     1    1
    10     1     2   ar
    11     2     3   ar
    12     3     4   ar
    13     4    10    1
    14    10    11   ar
    15    11    12   ar
    16    12    13   ar
    17    13    14   ar
    18    14    15   ar
    19    15    16    1
    20    16    17    1
    21    17    18    1
    22    17    19    1
    23    17    20    1
    24     4     5   ar
    25     5     6    1
    26     5     7   ar
    27    30    26   ar
    28     7     1   ar
    29    15    10   ar
    30    23    24    1
    31     6     8    1
    32     6     9    1
@<TRIPOS>MOLECULE
*****
 30 32 0 0 0
SMALL
GASTEIGER

@<TRIPOS>ATOM
      1 C         140.1679  144.5318  160.1256 C.ar    1  UNL1        0.1358
      2 C         140.0912  143.0703  160.4544 C.ar    1  UNL1        0.0346
      3 C         140.4589  142.5900  161.8270 C.ar    1  UNL1        0.0057
      4 C         140.9033  143.5713  162.8709 C.ar    1  UNL1        0.0342
      5 C         140.9800  145.0327  162.5421 C.ar    1  UNL1        0.1268
      6 N         141.4243  146.0140  163.5860 N.pl3   1  UNL1       -0.3426
      7 N         140.6122  145.5130  161.1695 N.ar    1  UNL1       -0.2163
      8 H         141.6657  145.6988  164.4869 H       1  UNL1        0.1437
      9 H         141.4747  146.9732  163.3702 H       1  UNL1        0.1437
     10 C         141.2710  143.0909  164.2435 C.ar    1  UNL1        0.0369
     11 C         142.6442  142.5470  164.5049 C.ar    1  UNL1        0.0031
     12 C         143.0120  142.0667  165.8776 C.ar    1  UNL1        0.0002
     13 C         142.0064  142.1303  166.9888 C.ar    1  UNL1        0.0031
     14 C         140.6331  142.6743  166.7273 C.ar    1  UNL1        0.0372
     15 C         140.2655  143.1545  165.3547 C.ar    1  UNL1        0.1468
     16 O         138.8922  143.6985  165.0933 O.3     1  UNL1       -0.4045
     17 C         137.9181  142.9109  164.2681 C.3     1  UNL1        0.5753
     18 F         136.9440  142.1233  163.4430 F       1  UNL1       -0.1328
     19 F         137.6610  144.1196  163.4179 F       1  UNL1       -0.1328
     20 F         138.1753  141.7021  165.1183 F       1  UNL1       -0.1328
     21 C         140.8271  145.6904  157.8956 C.2     1  UNL1        0.2550
     22 O         142.2218  145.8885  158.4109 O.2     1  UNL1       -0.2696
     23 N         139.8001  145.0121  158.7530 N.am    1  UNL1       -0.2656
     24 H         138.8847  144.8821  158.4148 H       1  UNL1        0.1566
     25 C         142.3808  144.9484  155.1235 C.3     1  UNL1        0.0558
     26 C         141.1736  145.8297  155.2488 C.ar    1  UNL1        0.1055
     27 N         140.4685  146.5246  154.1219 N.ar    1  UNL1       -0.0811
     28 O         139.3185  147.2952  154.6996 O.2     1  UNL1       -0.3503
     29 C         139.3129  147.0765  156.1836 C.ar    1  UNL1        0.2179
     30 C         140.4594  146.1707  156.5229 C.ar    1  UNL1        0.1106
@<TRIPOS>BOND
     1    25    26    1
     2    26    27   ar
     3    27    28   ar
     4    28    29   ar
     5    29    30   ar
     6    30    21    1
     7    21    22    2
     8    21    23   am
     9    23     1    1
    10     1     2   ar
    11     2     3   ar
    12     3     4   ar
    13     4    10    1
    14    10    11   ar
    15    11    12   ar
    16    12    13   ar
    17    13    14   ar
    18    14    15   ar
    19    15    16    1
    20    16    17    1
    21    17    18    1
    22    17    19    1
    23    17    20    1
    24     4     5   ar
    25     5     6    1
    26     5     7   ar
    27    30    26   ar
    28     7     1   ar
    29    15    10   ar
    30    23    24    1
    31     6     8    1
    32     6     9    1
