@<TRIPOS>MOLECULE
*****
 28 32 0 0 0
SMALL
GASTEIGER

@<TRIPOS>ATOM
      1 C         141.8299  142.1004  167.1864 C.ar    1  UNL1        0.0235
      2 C         143.2986  142.3583  167.0243 C.ar    1  UNL1        0.1007
      3 N         143.8257  142.9054  165.7310 N.ar    1  UNL1       -0.2246
      4 C         142.8841  143.1946  164.5997 C.ar    1  UNL1        0.1702
      5 N         143.1105  143.7336  163.2182 N.ar    1  UNL1       -0.2052
      6 C         141.7816  143.8087  162.5266 C.ar    1  UNL1        0.1647
      7 S         140.7340  143.3162  163.4805 S.2     1  UNL1       -0.0499
      8 C         141.4154  142.9367  164.7618 C.ar    1  UNL1        0.0679
      9 C         140.8883  142.3896  166.0551 C.ar    1  UNL1        0.0113
     10 F         140.1207  143.8175  168.9557 F       1  UNL1       -0.1832
     11 C         140.4481  142.4118  169.3645 C.ar    1  UNL1        0.2223
     12 N         139.9209  141.8647  170.6578 N.ar    1  UNL1       -0.2165
     13 C         140.2483  140.4591  171.0665 C.ar    1  UNL1        0.1013
     14 C         141.1029  139.6005  170.1819 C.ar    1  UNL1        0.0208
     15 C         141.6301  140.1477  168.8885 C.ar    1  UNL1        0.0055
     16 C         141.3027  141.5533  168.4798 C.ar    1  UNL1        0.0475
     17 N         141.5423  144.2916  161.1267 N.pl3   1  UNL1       -0.2880
     18 C         142.3449  143.7282  159.9915 C.3     1  UNL1        0.0940
     19 C         142.1056  144.2110  158.5917 C.3     1  UNL1        0.0375
     20 C         141.0638  145.2572  158.3270 C.3     1  UNL1        0.0609
     21 C         140.2612  145.8205  159.4621 C.3     1  UNL1        0.0375
     22 C         140.5005  145.3377  160.8620 C.3     1  UNL1        0.0940
     23 N         140.8245  145.7400  156.9271 N.3     1  UNL1       -0.2738
     24 C         139.7302  146.7283  156.6514 C.3     1  UNL1        0.0720
     25 C         139.4909  147.2111  155.2516 C.3     1  UNL1        0.0174
     26 C         140.3458  146.7058  154.1275 C.3     1  UNL1        0.0029
     27 C         141.4400  145.7175  154.4032 C.3     1  UNL1        0.0174
     28 C         141.6794  145.2346  155.8030 C.3     1  UNL1        0.0720
@<TRIPOS>BOND
     1    10    11    1
     2    11    12   ar
     3    12    13   ar
     4    13    14   ar
     5    14    15   ar
     6    15    16   ar
     7    16     1    1
     8     1     2   ar
     9     2     3   ar
    10     3     4   ar
    11     4     5   ar
    12     5     6   ar
    13     6    17    1
    14    17    18    1
    15    18    19    1
    16    19    20    1
    17    20    23    1
    18    23    24    1
    19    24    25    1
    20    25    26    1
    21    26    27    1
    22    27    28    1
    23    20    21    1
    24    21    22    1
    25     6     7   ar
    26     7     8   ar
    27     8     9   ar
    28    16    11   ar
    29     9     1   ar
    30     8     4   ar
    31    22    17    1
    32    28    23    1
@<TRIPOS>MOLECULE
*****
 28 32 0 0 0
SMALL
GASTEIGER

@<TRIPOS>ATOM
      1 C         141.3846  142.2191  166.5308 C.ar    1  UNL1        0.0235
      2 C         142.8771  142.3614  166.4880 C.ar    1  UNL1        0.1007
      3 N         143.5509  142.8207  165.2291 N.ar    1  UNL1       -0.2246
      4 C         142.7321  143.1378  164.0129 C.ar    1  UNL1        0.1702
      5 N         143.1138  143.6081  162.6406 N.ar    1  UNL1       -0.2052
      6 C         141.8571  143.7564  161.8353 C.ar    1  UNL1        0.1647
      7 S         140.6987  143.3777  162.7098 S.2     1  UNL1       -0.0499
      8 C         141.2395  142.9954  164.0557 C.ar    1  UNL1        0.0679
      9 C         140.5658  142.5361  165.3146 C.ar    1  UNL1        0.0113
     10 F         140.3153  139.4228  166.7253 F       1  UNL1       -0.1832
     11 C         140.1761  140.3616  167.8870 C.ar    1  UNL1        0.2223
     12 N         139.5022  139.9022  169.1459 N.ar    1  UNL1       -0.2165
     13 C         139.3630  140.8409  170.3076 C.ar    1  UNL1        0.1013
     14 C         139.8976  142.2390  170.2104 C.ar    1  UNL1        0.0208
     15 C         140.5715  142.6984  168.9514 C.ar    1  UNL1        0.0055
     16 C         140.7107  141.7597  167.7898 C.ar    1  UNL1        0.0475
     17 N         141.7734  144.2046  160.4062 N.pl3   1  UNL1       -0.2880
     18 C         142.7090  143.6304  159.3840 C.3     1  UNL1        0.0940
     19 C         142.6253  144.0786  157.9550 C.3     1  UNL1        0.0375
     20 C         141.6060  145.1010  157.5482 C.3     1  UNL1        0.0609
     21 C         140.6703  145.6753  158.5704 C.3     1  UNL1        0.0375
     22 C         140.7540  145.2271  159.9994 C.3     1  UNL1        0.0940
     23 N         141.5222  145.5493  156.1192 N.3     1  UNL1       -0.2738
     24 C         140.4985  146.5669  155.7111 C.3     1  UNL1        0.0720
     25 C         140.4148  147.0151  154.2821 C.3     1  UNL1        0.0174
     26 C         141.3547  146.4458  153.2612 C.3     1  UNL1        0.0029
     27 C         142.3784  145.4282  153.6693 C.3     1  UNL1        0.0174
     28 C         142.4622  144.9800  155.0982 C.3     1  UNL1        0.0720
@<TRIPOS>BOND
     1    10    11    1
     2    11    12   ar
     3    12    13   ar
     4    13    14   ar
     5    14    15   ar
     6    15    16   ar
     7    16     1    1
     8     1     2   ar
     9     2     3   ar
    10     3     4   ar
    11     4     5   ar
    12     5     6   ar
    13     6    17    1
    14    17    18    1
    15    18    19    1
    16    19    20    1
    17    20    23    1
    18    23    24    1
    19    24    25    1
    20    25    26    1
    21    26    27    1
    22    27    28    1
    23    20    21    1
    24    21    22    1
    25     6     7   ar
    26     7     8   ar
    27     8     9   ar
    28    16    11   ar
    29     9     1   ar
    30     8     4   ar
    31    22    17    1
    32    28    23    1
@<TRIPOS>MOLECULE
*****
 28 32 0 0 0
SMALL
GASTEIGER

@<TRIPOS>ATOM
      1 C         140.3698  140.4257  166.1539 C.ar    1  UNL1        0.0235
      2 C         139.0683  139.8174  165.7224 C.ar    1  UNL1        0.1007
      3 N         138.4726  140.1840  164.3956 N.ar    1  UNL1       -0.2246
      4 C         139.1783  141.1589  163.5002 C.ar    1  UNL1        0.1702
      5 N         138.8364  141.7075  162.1466 N.ar    1  UNL1       -0.2052
      6 C         139.9266  142.6548  161.7415 C.ar    1  UNL1        0.1647
      7 S         140.9422  142.6916  162.8448 S.2     1  UNL1       -0.0499
      8 C         140.4797  141.7671  163.9317 C.ar    1  UNL1        0.0679
      9 C         141.0754  141.4005  165.2586 C.ar    1  UNL1        0.0113
     10 F         143.1381  139.2777  166.2894 F       1  UNL1       -0.1832
     11 C         142.3498  139.4851  167.5486 C.ar    1  UNL1        0.2223
     12 N         142.9456  139.1185  168.8754 N.ar    1  UNL1       -0.2165
     13 C         142.1573  139.3259  170.1347 C.ar    1  UNL1        0.1013
     14 C         140.7731  139.8999  170.0669 C.ar    1  UNL1        0.0208
     15 C         140.1772  140.2665  168.7400 C.ar    1  UNL1        0.0055
     16 C         140.9656  140.0591  167.4809 C.ar    1  UNL1        0.0475
     17 N         139.9900  143.4293  160.4585 N.pl3   1  UNL1       -0.2880
     18 C         139.4191  142.8448  159.2006 C.3     1  UNL1        0.0940
     19 C         139.4825  143.6192  157.9176 C.3     1  UNL1        0.0375
     20 C         140.1169  144.9782  157.8925 C.3     1  UNL1        0.0609
     21 C         140.6879  145.5627  159.1504 C.3     1  UNL1        0.0375
     22 C         140.6244  144.7883  160.4334 C.3     1  UNL1        0.0940
     23 N         140.1804  145.7527  156.6094 N.3     1  UNL1       -0.2738
     24 C         139.3359  146.9795  156.4314 C.3     1  UNL1        0.0720
     25 C         139.3993  147.7541  155.1484 C.3     1  UNL1        0.0174
     26 C         140.3073  147.3017  154.0435 C.3     1  UNL1        0.0029
     27 C         141.1518  146.0749  154.2215 C.3     1  UNL1        0.0174
     28 C         141.0884  145.3004  155.5044 C.3     1  UNL1        0.0720
@<TRIPOS>BOND
     1    10    11    1
     2    11    12   ar
     3    12    13   ar
     4    13    14   ar
     5    14    15   ar
     6    15    16   ar
     7    16     1    1
     8     1     2   ar
     9     2     3   ar
    10     3     4   ar
    11     4     5   ar
    12     5     6   ar
    13     6    17    1
    14    17    18    1
    15    18    19    1
    16    19    20    1
    17    20    23    1
    18    23    24    1
    19    24    25    1
    20    25    26    1
    21    26    27    1
    22    27    28    1
    23    20    21    1
    24    21    22    1
    25     6     7   ar
    26     7     8   ar
    27     8     9   ar
    28    16    11   ar
    29     9     1   ar
    30     8     4   ar
    31    22    17    1
    32    28    23    1
@<TRIPOS>MOLECULE
*****
 28 32 0 0 0
SMALL
GASTEIGER

@<TRIPOS>ATOM
      1 C         139.9442  145.6483  156.7921 C.ar    1  UNL1        0.0235
      2 C         139.3472  144.2872  156.5894 C.ar    1  UNL1        0.1007
      3 N         139.2727  143.3227  157.7357 N.ar    1  UNL1       -0.2246
      4 C         139.7952  143.7192  159.0847 C.ar    1  UNL1        0.1702
      5 N         139.8566  142.9866  160.3922 N.ar    1  UNL1       -0.2052
      6 C         140.4916  143.8949  161.4030 C.ar    1  UNL1        0.1647
      7 S         140.8225  145.1888  160.7202 S.2     1  UNL1       -0.0499
      8 C         140.3921  145.0802  159.2874 C.ar    1  UNL1        0.0679
      9 C         140.4667  146.0448  158.1411 C.ar    1  UNL1        0.0113
     10 F         138.5125  148.2798  156.9507 F       1  UNL1       -0.1832
     11 C         139.3029  147.9287  155.7250 C.ar    1  UNL1        0.2223
     12 N         139.3774  148.8933  154.5788 N.ar    1  UNL1       -0.2165
     13 C         140.1679  148.5422  153.3532 C.ar    1  UNL1        0.1013
     14 C         140.8837  147.2264  153.2739 C.ar    1  UNL1        0.0208
     15 C         140.8092  146.2618  154.4203 C.ar    1  UNL1        0.0055
     16 C         140.0188  146.6129  155.6458 C.ar    1  UNL1        0.0475
     17 N         140.7502  143.5669  162.8438 N.pl3   1  UNL1       -0.2880
     18 C         142.0611  142.9627  163.2518 C.3     1  UNL1        0.0940
     19 C         142.3197  142.6347  164.6924 C.3     1  UNL1        0.0375
     20 C         141.2675  142.9110  165.7250 C.3     1  UNL1        0.0609
     21 C         139.9566  143.5152  165.3171 C.3     1  UNL1        0.0375
     22 C         139.6979  143.8432  163.8764 C.3     1  UNL1        0.0940
     23 N         141.5261  142.5830  167.1658 N.3     1  UNL1       -0.2738
     24 C         140.4382  142.7625  168.1828 C.3     1  UNL1        0.0720
     25 C         140.6968  142.4346  169.6234 C.3     1  UNL1        0.0174
     26 C         142.0432  141.9271  170.0471 C.3     1  UNL1        0.0029
     27 C         143.1311  141.7476  169.0301 C.3     1  UNL1        0.0174
     28 C         142.8725  142.0756  167.5894 C.3     1  UNL1        0.0720
@<TRIPOS>BOND
     1    10    11    1
     2    11    12   ar
     3    12    13   ar
     4    13    14   ar
     5    14    15   ar
     6    15    16   ar
     7    16     1    1
     8     1     2   ar
     9     2     3   ar
    10     3     4   ar
    11     4     5   ar
    12     5     6   ar
    13     6    17    1
    14    17    18    1
    15    18    19    1
    16    19    20    1
    17    20    23    1
    18    23    24    1
    19    24    25    1
    20    25    26    1
    21    26    27    1
    22    27    28    1
    23    20    21    1
    24    21    22    1
    25     6     7   ar
    26     7     8   ar
    27     8     9   ar
    28    16    11   ar
    29     9     1   ar
    30     8     4   ar
    31    22    17    1
    32    28    23    1
@<TRIPOS>MOLECULE
*****
 28 32 0 0 0
SMALL
GASTEIGER

@<TRIPOS>ATOM
      1 C         141.4047  140.5053  167.1295 C.ar    1  UNL1        0.0235
      2 C         142.5518  139.5503  167.2779 C.ar    1  UNL1        0.1007
      3 N         143.0457  138.7808  166.0889 N.ar    1  UNL1       -0.2246
      4 C         142.3924  138.9662  164.7514 C.ar    1  UNL1        0.1702
      5 N         142.6594  138.3504  163.4099 N.ar    1  UNL1       -0.2052
      6 C         141.6773  138.9247  162.4324 C.ar    1  UNL1        0.1647
      7 S         140.8033  139.8956  163.1698 S.2     1  UNL1       -0.0499
      8 C         141.2453  139.9212  164.6030 C.ar    1  UNL1        0.0679
      9 C         140.7514  140.6907  165.7920 C.ar    1  UNL1        0.0113
     10 F         138.9625  139.5802  168.6060 F       1  UNL1       -0.1832
     11 C         139.6897  140.8123  169.0568 C.ar    1  UNL1        0.2223
     12 N         139.1957  141.5818  170.2459 N.ar    1  UNL1       -0.2165
     13 C         139.9229  142.8139  170.6967 C.ar    1  UNL1        0.1013
     14 C         141.1440  143.2765  169.9585 C.ar    1  UNL1        0.0208
     15 C         141.6379  142.5069  168.7694 C.ar    1  UNL1        0.0055
     16 C         140.9107  141.2748  168.3186 C.ar    1  UNL1        0.0475
     17 N         141.5852  138.5875  160.9737 N.pl3   1  UNL1       -0.2880
     18 C         142.7813  138.0387  160.2539 C.3     1  UNL1        0.0940
     19 C         142.6893  137.7015  158.7952 C.3     1  UNL1        0.0375
     20 C         141.4012  137.9131  158.0563 C.3     1  UNL1        0.0609
     21 C         140.2051  138.4620  158.7761 C.3     1  UNL1        0.0375
     22 C         140.2971  138.7992  160.2348 C.3     1  UNL1        0.0940
     23 N         141.3092  137.5759  156.5976 N.3     1  UNL1       -0.2738
     24 C         142.5581  137.4541  155.7757 C.3     1  UNL1        0.0720
     25 C         142.4661  137.1170  154.3170 C.3     1  UNL1        0.0174
     26 C         141.1252  136.9015  153.6802 C.3     1  UNL1        0.0029
     27 C         139.8763  137.0233  154.5021 C.3     1  UNL1        0.0174
     28 C         139.9683  137.3605  155.9608 C.3     1  UNL1        0.0720
@<TRIPOS>BOND
     1    10    11    1
     2    11    12   ar
     3    12    13   ar
     4    13    14   ar
     5    14    15   ar
     6    15    16   ar
     7    16     1    1
     8     1     2   ar
     9     2     3   ar
    10     3     4   ar
    11     4     5   ar
    12     5     6   ar
    13     6    17    1
    14    17    18    1
    15    18    19    1
    16    19    20    1
    17    20    23    1
    18    23    24    1
    19    24    25    1
    20    25    26    1
    21    26    27    1
    22    27    28    1
    23    20    21    1
    24    21    22    1
    25     6     7   ar
    26     7     8   ar
    27     8     9   ar
    28    16    11   ar
    29     9     1   ar
    30     8     4   ar
    31    22    17    1
    32    28    23    1
@<TRIPOS>MOLECULE
*****
 28 32 0 0 0
SMALL
GASTEIGER

@<TRIPOS>ATOM
      1 C         139.7184  140.0931  167.4516 C.ar    1  UNL1        0.0235
      2 C         138.5311  139.1820  167.3497 C.ar    1  UNL1        0.1007
      3 N         137.8208  139.0196  166.0386 N.ar    1  UNL1       -0.2246
      4 C         138.2978  139.7682  164.8294 C.ar    1  UNL1        0.1702
      5 N         137.8026  139.8084  163.4139 N.ar    1  UNL1       -0.2052
      6 C         138.6839  140.7444  162.6411 C.ar    1  UNL1        0.1647
      7 S         139.7237  141.2826  163.5789 S.2     1  UNL1       -0.0499
      8 C         139.4850  140.6792  164.9313 C.ar    1  UNL1        0.0679
      9 C         140.1953  140.8417  166.2424 C.ar    1  UNL1        0.0113
     10 F         138.1486  140.6248  169.9522 F       1  UNL1       -0.1832
     11 C         139.6439  140.5214  170.0130 C.ar    1  UNL1        0.2223
     12 N         140.3542  140.6839  171.3241 N.ar    1  UNL1       -0.2165
     13 C         141.8494  140.5806  171.3850 C.ar    1  UNL1        0.1013
     14 C         142.6343  140.3147  170.1346 C.ar    1  UNL1        0.0208
     15 C         141.9239  140.1522  168.8235 C.ar    1  UNL1        0.0055
     16 C         140.4288  140.2556  168.7627 C.ar    1  UNL1        0.0475
     17 N         138.5492  141.0828  161.1860 N.pl3   1  UNL1       -0.2880
     18 C         138.8127  142.4820  160.7139 C.3     1  UNL1        0.0940
     19 C         138.6780  142.8205  159.2588 C.3     1  UNL1        0.0375
     20 C         138.2797  141.7598  158.2758 C.3     1  UNL1        0.0609
     21 C         138.0162  140.3606  158.7480 C.3     1  UNL1        0.0375
     22 C         138.1509  140.0221  160.2030 C.3     1  UNL1        0.0940
     23 N         138.1450  142.0982  156.8207 N.3     1  UNL1       -0.2738
     24 C         138.3812  143.5036  156.3526 C.3     1  UNL1        0.0720
     25 C         138.2465  143.8420  154.8975 C.3     1  UNL1        0.0174
     26 C         137.8756  142.7751  153.9106 C.3     1  UNL1        0.0029
     27 C         137.6393  141.3697  154.3787 C.3     1  UNL1        0.0174
     28 C         137.7741  141.0313  155.8338 C.3     1  UNL1        0.0720
@<TRIPOS>BOND
     1    10    11    1
     2    11    12   ar
     3    12    13   ar
     4    13    14   ar
     5    14    15   ar
     6    15    16   ar
     7    16     1    1
     8     1     2   ar
     9     2     3   ar
    10     3     4   ar
    11     4     5   ar
    12     5     6   ar
    13     6    17    1
    14    17    18    1
    15    18    19    1
    16    19    20    1
    17    20    23    1
    18    23    24    1
    19    24    25    1
    20    25    26    1
    21    26    27    1
    22    27    28    1
    23    20    21    1
    24    21    22    1
    25     6     7   ar
    26     7     8   ar
    27     8     9   ar
    28    16    11   ar
    29     9     1   ar
    30     8     4   ar
    31    22    17    1
    32    28    23    1
@<TRIPOS>MOLECULE
*****
 28 32 0 0 0
SMALL
GASTEIGER

@<TRIPOS>ATOM
      1 C         142.9379  137.5786  156.7569 C.ar    1  UNL1        0.0235
      2 C         143.6077  138.8924  156.4824 C.ar    1  UNL1        0.1007
      3 N         143.8895  139.8405  157.6100 N.ar    1  UNL1       -0.2246
      4 C         143.5015  139.4749  159.0121 C.ar    1  UNL1        0.1702
      5 N         143.6503  140.2008  160.3164 N.ar    1  UNL1       -0.2052
      6 C         143.0724  139.3356  161.3969 C.ar    1  UNL1        0.1647
      7 S         142.5666  138.0750  160.7604 S.2     1  UNL1       -0.0499
      8 C         142.8318  138.1611  159.2866 C.ar    1  UNL1        0.0679
      9 C         142.5500  137.2130  158.1590 C.ar    1  UNL1        0.0113
     10 F         144.1324  134.8267  156.7771 F       1  UNL1       -0.1832
     11 C         143.2533  135.2544  155.6393 C.ar    1  UNL1        0.2223
     12 N         142.9715  134.3062  154.5118 N.ar    1  UNL1       -0.2165
     13 C         142.0924  134.7339  153.3740 C.ar    1  UNL1        0.1013
     14 C         141.4952  136.1098  153.3639 C.ar    1  UNL1        0.0208
     15 C         141.7771  137.0581  154.4916 C.ar    1  UNL1        0.0055
     16 C         142.6561  136.6303  155.6292 C.ar    1  UNL1        0.0475
     17 N         143.0111  139.6719  162.8574 N.pl3   1  UNL1       -0.2880
     18 C         143.0315  141.1055  163.2984 C.3     1  UNL1        0.0940
     19 C         142.9702  141.4419  164.7589 C.3     1  UNL1        0.0375
     20 C         142.8886  140.3446  165.7784 C.3     1  UNL1        0.0609
     21 C         142.8682  138.9111  165.3374 C.3     1  UNL1        0.0375
     22 C         142.9295  138.5747  163.8769 C.3     1  UNL1        0.0940
     23 N         142.8273  140.6810  167.2390 N.3     1  UNL1       -0.2738
     24 C         142.5483  139.6043  168.2454 C.3     1  UNL1        0.0720
     25 C         142.4870  139.9406  169.7059 C.3     1  UNL1        0.0174
     26 C         142.7047  141.3535  170.1600 C.3     1  UNL1        0.0029
     27 C         142.9837  142.4301  169.1535 C.3     1  UNL1        0.0174
     28 C         143.0450  142.0939  167.6930 C.3     1  UNL1        0.0720
@<TRIPOS>BOND
     1    10    11    1
     2    11    12   ar
     3    12    13   ar
     4    13    14   ar
     5    14    15   ar
     6    15    16   ar
     7    16     1    1
     8     1     2   ar
     9     2     3   ar
    10     3     4   ar
    11     4     5   ar
    12     5     6   ar
    13     6    17    1
    14    17    18    1
    15    18    19    1
    16    19    20    1
    17    20    23    1
    18    23    24    1
    19    24    25    1
    20    25    26    1
    21    26    27    1
    22    27    28    1
    23    20    21    1
    24    21    22    1
    25     6     7   ar
    26     7     8   ar
    27     8     9   ar
    28    16    11   ar
    29     9     1   ar
    30     8     4   ar
    31    22    17    1
    32    28    23    1
@<TRIPOS>MOLECULE
*****
 28 32 0 0 0
SMALL
GASTEIGER

@<TRIPOS>ATOM
      1 C         140.0186  140.1828  167.1456 C.ar    1  UNL1        0.0235
      2 C         138.8125  139.2926  167.0924 C.ar    1  UNL1        0.1007
      3 N         138.0471  139.1425  165.8112 N.ar    1  UNL1       -0.2246
      4 C         138.4878  139.8826  164.5832 C.ar    1  UNL1        0.1702
      5 N         137.9367  139.9315  163.1888 N.ar    1  UNL1       -0.2052
      6 C         138.8023  140.8519  162.3804 C.ar    1  UNL1        0.1647
      7 S         139.8883  141.3719  163.2750 S.2     1  UNL1       -0.0499
      8 C         139.6939  140.7728  164.6364 C.ar    1  UNL1        0.0679
      9 C         140.4593  140.9229  165.9176 C.ar    1  UNL1        0.0113
     10 F         142.8274  139.1481  167.3449 F       1  UNL1       -0.1832
     11 C         142.1885  139.8156  168.5265 C.ar    1  UNL1        0.2223
     12 N         142.9539  139.9657  169.8077 N.ar    1  UNL1       -0.2165
     13 C         142.3150  140.6332  170.9894 C.ar    1  UNL1        0.1013
     14 C         140.9105  141.1505  170.8898 C.ar    1  UNL1        0.0208
     15 C         140.1451  141.0004  169.6085 C.ar    1  UNL1        0.0055
     16 C         140.7840  140.3329  168.4269 C.ar    1  UNL1        0.0475
     17 N         138.6148  141.1925  160.9316 N.pl3   1  UNL1       -0.2880
     18 C         138.0079  140.1881  159.9974 C.3     1  UNL1        0.0940
     19 C         137.8204  140.5287  158.5487 C.3     1  UNL1        0.0375
     20 C         138.2399  141.8738  158.0342 C.3     1  UNL1        0.0609
     21 C         138.8469  142.8782  158.9684 C.3     1  UNL1        0.0375
     22 C         139.0343  142.5376  160.4171 C.3     1  UNL1        0.0940
     23 N         138.0524  142.2144  156.5854 N.3     1  UNL1       -0.2738
     24 C         137.0524  143.2578  156.1836 C.3     1  UNL1        0.0720
     25 C         136.8649  143.5985  154.7349 C.3     1  UNL1        0.0174
     26 C         137.6775  142.8958  153.6881 C.3     1  UNL1        0.0029
     27 C         138.6775  141.8525  154.0898 C.3     1  UNL1        0.0174
     28 C         138.8649  141.5118  155.5385 C.3     1  UNL1        0.0720
@<TRIPOS>BOND
     1    10    11    1
     2    11    12   ar
     3    12    13   ar
     4    13    14   ar
     5    14    15   ar
     6    15    16   ar
     7    16     1    1
     8     1     2   ar
     9     2     3   ar
    10     3     4   ar
    11     4     5   ar
    12     5     6   ar
    13     6    17    1
    14    17    18    1
    15    18    19    1
    16    19    20    1
    17    20    23    1
    18    23    24    1
    19    24    25    1
    20    25    26    1
    21    26    27    1
    22    27    28    1
    23    20    21    1
    24    21    22    1
    25     6     7   ar
    26     7     8   ar
    27     8     9   ar
    28    16    11   ar
    29     9     1   ar
    30     8     4   ar
    31    22    17    1
    32    28    23    1
@<TRIPOS>MOLECULE
*****
 28 32 0 0 0
SMALL
GASTEIGER

@<TRIPOS>ATOM
      1 C         140.0958  141.3040  165.8015 C.ar    1  UNL1        0.0235
      2 C         138.8588  141.4643  164.9684 C.ar    1  UNL1        0.1007
      3 N         138.9680  141.5691  163.4761 N.ar    1  UNL1       -0.2246
      4 C         140.3142  141.5136  162.8168 C.ar    1  UNL1        0.1702
      5 N         140.7310  141.5902  161.3779 N.ar    1  UNL1       -0.2052
      6 C         142.2257  141.4772  161.3217 C.ar    1  UNL1        0.1647
      7 S         142.7326  141.3308  162.7259 S.2     1  UNL1       -0.0499
      8 C         141.5512  141.3533  163.6499 C.ar    1  UNL1        0.0679
      9 C         141.4420  141.2485  165.1422 C.ar    1  UNL1        0.0113
     10 F         138.8437  138.8791  167.0472 F       1  UNL1       -0.1832
     11 C         139.3606  139.9867  167.9168 C.ar    1  UNL1        0.2223
     12 N         139.2515  139.8819  169.4091 N.ar    1  UNL1       -0.2165
     13 C         139.7684  140.9895  170.2786 C.ar    1  UNL1        0.1013
     14 C         140.3944  142.2020  169.6557 C.ar    1  UNL1        0.0208
     15 C         140.5036  142.3068  168.1633 C.ar    1  UNL1        0.0055
     16 C         139.9867  141.1992  167.2939 C.ar    1  UNL1        0.0475
     17 N         143.0660  141.5057  160.0794 N.pl3   1  UNL1       -0.2880
     18 C         144.1150  142.5640  159.9077 C.3     1  UNL1        0.0940
     19 C         144.9553  142.5925  158.6655 C.3     1  UNL1        0.0375
     20 C         144.7466  141.5627  157.5951 C.3     1  UNL1        0.0609
     21 C         143.6976  140.5043  157.7669 C.3     1  UNL1        0.0375
     22 C         142.8573  140.4758  159.0091 C.3     1  UNL1        0.0940
     23 N         145.5869  141.5911  156.3528 N.3     1  UNL1       -0.2738
     24 C         146.9463  142.2247  156.3813 C.3     1  UNL1        0.0720
     25 C         147.7866  142.2531  155.1391 C.3     1  UNL1        0.0174
     26 C         147.2676  141.6481  153.8685 C.3     1  UNL1        0.0029
     27 C         145.9082  141.0145  153.8401 C.3     1  UNL1        0.0174
     28 C         145.0679  140.9860  155.0823 C.3     1  UNL1        0.0720
@<TRIPOS>BOND
     1    10    11    1
     2    11    12   ar
     3    12    13   ar
     4    13    14   ar
     5    14    15   ar
     6    15    16   ar
     7    16     1    1
     8     1     2   ar
     9     2     3   ar
    10     3     4   ar
    11     4     5   ar
    12     5     6   ar
    13     6    17    1
    14    17    18    1
    15    18    19    1
    16    19    20    1
    17    20    23    1
    18    23    24    1
    19    24    25    1
    20    25    26    1
    21    26    27    1
    22    27    28    1
    23    20    21    1
    24    21    22    1
    25     6     7   ar
    26     7     8   ar
    27     8     9   ar
    28    16    11   ar
    29     9     1   ar
    30     8     4   ar
    31    22    17    1
    32    28    23    1
