@<TRIPOS>MOLECULE
*****
 36 40 0 0 0
SMALL
GASTEIGER

@<TRIPOS>ATOM
      1 N         142.5382  140.4880  160.7046 N.3     1  UNL1       -0.2689
      2 C         141.7859  141.5107  161.5034 C.3     1  UNL1        0.0724
      3 C         141.7588  141.4215  163.0004 C.3     1  UNL1        0.0175
      4 C         142.4840  140.3096  163.6988 C.3     1  UNL1        0.0060
      5 C         143.2363  139.2869  162.9000 C.3     1  UNL1        0.0175
      6 C         143.2634  139.3761  161.4030 C.3     1  UNL1        0.0724
      7 C         141.7316  141.3323  164.4976 C.3     1  UNL1        0.0216
      8 C         141.7045  141.2431  165.9946 C.3     1  UNL1        0.0934
      9 N         142.4297  140.1312  166.6930 N.am    1  UNL1       -0.2789
     10 C         142.4026  140.0420  168.1901 C.2     1  UNL1        0.2382
     11 O         143.1278  138.9300  168.8885 O.2     1  UNL1       -0.2740
     12 C         143.1821  139.1085  165.8942 C.3     1  UNL1        0.0934
     13 C         143.2092  139.1977  164.3971 C.3     1  UNL1        0.0216
     14 C         141.6502  141.0647  168.9889 C.3     1  UNL1        0.1767
     15 C         140.2350  140.7967  169.4074 C.2     1  UNL1       -0.0068
     16 C         139.4826  141.8194  170.2061 C.2     1  UNL1        0.0143
     17 C         140.1456  143.1101  170.5864 C.2     1  UNL1        0.0883
     18 N         141.5608  143.3781  170.1679 N.am    1  UNL1       -0.1772
     19 C         142.3132  142.3553  169.3691 C.2     1  UNL1        0.2581
     20 O         143.7285  142.6233  168.9505 O.2     1  UNL1       -0.2721
     21 C         142.5654  140.5772  159.2075 C.3     1  UNL1        0.1022
     22 C         140.5764  139.1102  158.4066 C.ar    1  UNL1        0.1427
     23 C         140.0497  137.9761  157.5779 C.ar    1  UNL1        0.0372
     24 C         140.9852  137.1752  156.7217 C.ar    1  UNL1        0.0031
     25 C         142.4475  137.5082  156.6941 C.ar    1  UNL1       -0.0001
     26 C         142.9742  138.6422  157.5227 C.ar    1  UNL1        0.0001
     27 C         142.0386  139.4432  158.3789 C.ar    1  UNL1        0.0284
     28 O         139.6408  139.9111  159.2628 O.3     1  UNL1       -0.4507
     29 C         138.4435  140.2922  161.5368 C.ar    1  UNL1        0.1730
     30 C         138.1261  139.8366  162.9302 C.ar    1  UNL1        0.0401
     31 C         138.6887  138.5441  163.4430 C.ar    1  UNL1        0.0033
     32 C         139.5687  137.7072  162.5624 C.ar    1  UNL1        0.0033
     33 C         139.8860  138.1629  161.1690 C.ar    1  UNL1        0.0406
     34 C         139.3234  139.4555  160.6562 C.ar    1  UNL1        0.1789
     35 C         138.1135  142.8575  161.7828 C.3     1  UNL1        0.2526
     36 O         137.8809  141.5848  161.0240 O.3     1  UNL1       -0.4684
@<TRIPOS>BOND
     1    35    36    1
     2    36    29    1
     3    29    30   ar
     4    30    31   ar
     5    31    32   ar
     6    32    33   ar
     7    33    34   ar
     8    34    28    1
     9    28    22    1
    10    22    23   ar
    11    23    24   ar
    12    24    25   ar
    13    25    26   ar
    14    26    27   ar
    15    27    21    1
    16    21     1    1
    17     1     2    1
    18     2     3    1
    19     3     4    1
    20     4     5    1
    21     5     6    1
    22     4     7    1
    23     7     8    1
    24     8     9    1
    25     9    10   am
    26    10    11    2
    27    10    14    1
    28    14    15    1
    29    15    16    2
    30    16    17    1
    31    17    18    2
    32    18    19    1
    33    19    20    2
    34     9    12    1
    35    12    13    1
    36    34    29   ar
    37    27    22   ar
    38     6     1    1
    39    19    14    1
    40    13     4    1
@<TRIPOS>MOLECULE
*****
 36 40 0 0 0
SMALL
GASTEIGER

@<TRIPOS>ATOM
      1 N         141.9761  142.0781  160.9223 N.3     1  UNL1       -0.2689
      2 C         141.0223  141.3500  161.8222 C.3     1  UNL1        0.0724
      3 C         141.2326  141.3650  163.3073 C.3     1  UNL1        0.0175
      4 C         142.3967  142.1082  163.8924 C.3     1  UNL1        0.0060
      5 C         143.3506  142.8364  162.9925 C.3     1  UNL1        0.0175
      6 C         143.1402  142.8213  161.5074 C.3     1  UNL1        0.0724
      7 C         141.4429  141.3800  164.7924 C.3     1  UNL1        0.0216
      8 C         141.6532  141.3951  166.2775 C.3     1  UNL1        0.0934
      9 N         142.8173  142.1383  166.8626 N.am    1  UNL1       -0.2789
     10 C         143.0276  142.1533  168.3478 C.2     1  UNL1        0.2382
     11 O         144.1918  142.8965  168.9329 O.2     1  UNL1       -0.2740
     12 C         143.7712  142.8664  165.9627 C.3     1  UNL1        0.0934
     13 C         143.5609  142.8514  164.4775 C.3     1  UNL1        0.0216
     14 C         142.0738  141.4251  169.2477 C.3     1  UNL1        0.1767
     15 C         142.2937  139.9738  169.5566 C.2     1  UNL1       -0.0068
     16 C         141.3398  139.2457  170.4565 C.2     1  UNL1        0.0143
     17 C         140.1660  139.9688  171.0477 C.2     1  UNL1        0.0883
     18 N         139.9461  141.4201  170.7388 N.am    1  UNL1       -0.1772
     19 C         140.9001  142.1483  169.8388 C.2     1  UNL1        0.2581
     20 O         140.6802  143.5995  169.5299 O.2     1  UNL1       -0.2721
     21 C         141.7658  142.0631  159.4371 C.3     1  UNL1        0.1022
     22 C         140.3588  144.1968  158.9703 C.ar    1  UNL1        0.1427
     23 C         140.1598  145.4849  158.2279 C.ar    1  UNL1        0.0372
     24 C         141.1687  145.9275  157.2100 C.ar    1  UNL1        0.0031
     25 C         142.3767  145.0819  156.9344 C.ar    1  UNL1       -0.0001
     26 C         142.5757  143.7938  157.6767 C.ar    1  UNL1        0.0001
     27 C         141.5668  143.3512  158.6947 C.ar    1  UNL1        0.0284
     28 O         139.3500  143.7542  159.9883 O.3     1  UNL1       -0.4507
     29 C         138.5330  143.6697  162.4531 C.ar    1  UNL1        0.1730
     30 C         138.6717  144.1007  163.8831 C.ar    1  UNL1        0.0401
     31 C         139.7662  145.0471  164.2784 C.ar    1  UNL1        0.0033
     32 C         140.7221  145.5626  163.2436 C.ar    1  UNL1        0.0033
     33 C         140.5833  145.1316  161.8136 C.ar    1  UNL1        0.0406
     34 C         139.4887  144.1852  161.4183 C.ar    1  UNL1        0.1789
     35 C         137.4363  141.3180  162.5822 C.3     1  UNL1        0.2526
     36 O         137.4383  142.7233  162.0578 O.3     1  UNL1       -0.4684
@<TRIPOS>BOND
     1    35    36    1
     2    36    29    1
     3    29    30   ar
     4    30    31   ar
     5    31    32   ar
     6    32    33   ar
     7    33    34   ar
     8    34    28    1
     9    28    22    1
    10    22    23   ar
    11    23    24   ar
    12    24    25   ar
    13    25    26   ar
    14    26    27   ar
    15    27    21    1
    16    21     1    1
    17     1     2    1
    18     2     3    1
    19     3     4    1
    20     4     5    1
    21     5     6    1
    22     4     7    1
    23     7     8    1
    24     8     9    1
    25     9    10   am
    26    10    11    2
    27    10    14    1
    28    14    15    1
    29    15    16    2
    30    16    17    1
    31    17    18    2
    32    18    19    1
    33    19    20    2
    34     9    12    1
    35    12    13    1
    36    34    29   ar
    37    27    22   ar
    38     6     1    1
    39    19    14    1
    40    13     4    1
@<TRIPOS>MOLECULE
*****
 36 40 0 0 0
SMALL
GASTEIGER

@<TRIPOS>ATOM
      1 N         140.2049  144.7509  161.9712 N.3     1  UNL1       -0.2689
      2 C         141.0799  144.9187  163.1779 C.3     1  UNL1        0.0724
      3 C         140.9372  143.9853  164.3433 C.3     1  UNL1        0.0175
      4 C         139.9196  142.8841  164.3021 C.3     1  UNL1        0.0060
      5 C         139.0446  142.7162  163.0954 C.3     1  UNL1        0.0175
      6 C         139.1873  143.6496  161.9300 C.3     1  UNL1        0.0724
      7 C         140.7947  143.0519  165.5089 C.3     1  UNL1        0.0216
      8 C         140.6521  142.1185  166.6744 C.3     1  UNL1        0.0934
      9 N         139.6344  141.0172  166.6331 N.am    1  UNL1       -0.2789
     10 C         139.4919  140.0838  167.7987 C.2     1  UNL1        0.2382
     11 O         138.4743  138.9825  167.7575 O.2     1  UNL1       -0.2740
     12 C         138.7595  140.8494  165.4264 C.3     1  UNL1        0.0934
     13 C         138.9020  141.7828  164.2609 C.3     1  UNL1        0.0216
     14 C         140.3669  140.2516  169.0054 C.3     1  UNL1        0.1767
     15 C         141.8385  139.9779  168.9086 C.2     1  UNL1       -0.0068
     16 C         142.7135  140.1458  170.1153 C.2     1  UNL1        0.0143
     17 C         142.1169  140.5873  171.4189 C.2     1  UNL1        0.0883
     18 N         140.6452  140.8611  171.5156 N.am    1  UNL1       -0.1772
     19 C         139.7702  140.6932  170.3088 C.2     1  UNL1        0.2581
     20 O         138.2986  140.9669  170.4056 O.2     1  UNL1       -0.2721
     21 C         140.3474  145.6843  160.8056 C.3     1  UNL1        0.1022
     22 C         142.0727  144.3121  159.4307 C.ar    1  UNL1        0.1427
     23 C         142.5671  143.7955  158.1121 C.ar    1  UNL1        0.0372
     24 C         141.8308  144.1343  156.8500 C.ar    1  UNL1        0.0031
     25 C         140.6000  144.9899  156.9064 C.ar    1  UNL1       -0.0001
     26 C         140.1056  145.5066  158.2249 C.ar    1  UNL1        0.0001
     27 C         140.8419  145.1677  159.4871 C.ar    1  UNL1        0.0284
     28 O         142.8090  143.9732  160.6928 O.3     1  UNL1       -0.4507
     29 C         143.5235  142.2198  162.4718 C.ar    1  UNL1        0.1730
     30 C         143.3992  140.8488  163.0676 C.ar    1  UNL1        0.0401
     31 C         142.4362  139.8602  162.4800 C.ar    1  UNL1        0.0033
     32 C         141.5975  140.2426  161.2966 C.ar    1  UNL1        0.0033
     33 C         141.7217  141.6136  160.7009 C.ar    1  UNL1        0.0406
     34 C         142.6848  142.6022  161.2885 C.ar    1  UNL1        0.1789
     35 C         144.5587  143.3922  164.5464 C.3     1  UNL1        0.2526
     36 O         144.4865  143.2085  163.0595 O.3     1  UNL1       -0.4684
@<TRIPOS>BOND
     1    35    36    1
     2    36    29    1
     3    29    30   ar
     4    30    31   ar
     5    31    32   ar
     6    32    33   ar
     7    33    34   ar
     8    34    28    1
     9    28    22    1
    10    22    23   ar
    11    23    24   ar
    12    24    25   ar
    13    25    26   ar
    14    26    27   ar
    15    27    21    1
    16    21     1    1
    17     1     2    1
    18     2     3    1
    19     3     4    1
    20     4     5    1
    21     5     6    1
    22     4     7    1
    23     7     8    1
    24     8     9    1
    25     9    10   am
    26    10    11    2
    27    10    14    1
    28    14    15    1
    29    15    16    2
    30    16    17    1
    31    17    18    2
    32    18    19    1
    33    19    20    2
    34     9    12    1
    35    12    13    1
    36    34    29   ar
    37    27    22   ar
    38     6     1    1
    39    19    14    1
    40    13     4    1
@<TRIPOS>MOLECULE
*****
 36 40 0 0 0
SMALL
GASTEIGER

@<TRIPOS>ATOM
      1 N         141.9177  140.4700  160.8918 N.3     1  UNL1       -0.2689
      2 C         141.1279  141.3700  161.7952 C.3     1  UNL1        0.0724
      3 C         141.2102  141.1988  163.2830 C.3     1  UNL1        0.0175
      4 C         142.0824  140.1275  163.8676 C.3     1  UNL1        0.0060
      5 C         142.8723  139.2275  162.9642 C.3     1  UNL1        0.0175
      6 C         142.7899  139.3988  161.4764 C.3     1  UNL1        0.0724
      7 C         141.2925  141.0276  164.7710 C.3     1  UNL1        0.0216
      8 C         141.3749  140.8563  166.2589 C.3     1  UNL1        0.0934
      9 N         142.2471  139.7851  166.8434 N.am    1  UNL1       -0.2789
     10 C         142.3294  139.6139  168.3314 C.2     1  UNL1        0.2382
     11 O         143.2016  138.5426  168.9160 O.2     1  UNL1       -0.2740
     12 C         143.0369  138.8851  165.9401 C.3     1  UNL1        0.0934
     13 C         142.9546  139.0563  164.4521 C.3     1  UNL1        0.0216
     14 C         141.5395  140.5139  169.2348 C.3     1  UNL1        0.1767
     15 C         140.0575  140.3267  169.3707 C.2     1  UNL1       -0.0068
     16 C         139.2676  141.2267  170.2741 C.2     1  UNL1        0.0143
     17 C         139.9598  142.3139  171.0415 C.2     1  UNL1        0.0883
     18 N         141.4418  142.5011  170.9055 N.am    1  UNL1       -0.1772
     19 C         142.2317  141.6010  170.0021 C.2     1  UNL1        0.2581
     20 O         143.7138  141.7882  169.8661 O.2     1  UNL1       -0.2721
     21 C         141.8354  140.6412  159.4038 C.3     1  UNL1        0.1022
     22 C         143.8395  142.2278  158.9387 C.ar    1  UNL1        0.1427
     23 C         145.0714  142.5688  158.1536 C.ar    1  UNL1        0.0372
     24 C         145.5310  141.6643  157.0488 C.ar    1  UNL1        0.0031
     25 C         144.7587  140.4188  156.7290 C.ar    1  UNL1       -0.0001
     26 C         143.5269  140.0777  157.5140 C.ar    1  UNL1        0.0001
     27 C         143.0673  140.9823  158.6189 C.ar    1  UNL1        0.0284
     28 O         143.3800  143.1323  160.0435 O.3     1  UNL1       -0.4507
     29 C         143.4758  143.8716  162.5323 C.ar    1  UNL1        0.1730
     30 C         144.0549  143.7286  163.9086 C.ar    1  UNL1        0.0401
     31 C         145.1175  142.7032  164.1723 C.ar    1  UNL1        0.0033
     32 C         145.6009  141.8208  163.0597 C.ar    1  UNL1        0.0033
     33 C         145.0218  141.9638  161.6834 C.ar    1  UNL1        0.0406
     34 C         143.9592  142.9893  161.4198 C.ar    1  UNL1        0.1789
     35 C         141.3729  145.1841  163.3104 C.3     1  UNL1        0.2526
     36 O         142.4131  144.8970  162.2686 O.3     1  UNL1       -0.4684
@<TRIPOS>BOND
     1    35    36    1
     2    36    29    1
     3    29    30   ar
     4    30    31   ar
     5    31    32   ar
     6    32    33   ar
     7    33    34   ar
     8    34    28    1
     9    28    22    1
    10    22    23   ar
    11    23    24   ar
    12    24    25   ar
    13    25    26   ar
    14    26    27   ar
    15    27    21    1
    16    21     1    1
    17     1     2    1
    18     2     3    1
    19     3     4    1
    20     4     5    1
    21     5     6    1
    22     4     7    1
    23     7     8    1
    24     8     9    1
    25     9    10   am
    26    10    11    2
    27    10    14    1
    28    14    15    1
    29    15    16    2
    30    16    17    1
    31    17    18    2
    32    18    19    1
    33    19    20    2
    34     9    12    1
    35    12    13    1
    36    34    29   ar
    37    27    22   ar
    38     6     1    1
    39    19    14    1
    40    13     4    1
@<TRIPOS>MOLECULE
*****
 36 40 0 0 0
SMALL
GASTEIGER

@<TRIPOS>ATOM
      1 N         138.9872  141.5857  160.0166 N.3     1  UNL1       -0.2689
      2 C         138.4342  140.3020  159.4722 C.3     1  UNL1        0.0724
      3 C         139.3138  139.3847  158.6754 C.3     1  UNL1        0.0175
      4 C         140.7463  139.7511  158.4230 C.3     1  UNL1        0.0060
      5 C         141.2992  141.0348  158.9674 C.3     1  UNL1        0.0175
      6 C         140.4197  141.9521  159.7641 C.3     1  UNL1        0.0724
      7 C         140.1934  138.4674  157.8786 C.3     1  UNL1        0.0216
      8 C         141.0730  137.5501  157.0818 C.3     1  UNL1        0.0934
      9 N         142.5054  137.9165  156.8294 N.am    1  UNL1       -0.2789
     10 C         143.3850  136.9991  156.0326 C.2     1  UNL1        0.2382
     11 O         144.8175  137.3655  155.7801 O.2     1  UNL1       -0.2740
     12 C         143.0584  139.2002  157.3737 C.3     1  UNL1        0.0934
     13 C         142.1788  140.1175  158.1706 C.3     1  UNL1        0.0216
     14 C         142.8321  135.7154  155.4882 C.3     1  UNL1        0.1767
     15 C         142.3173  135.6577  154.0805 C.2     1  UNL1       -0.0068
     16 C         141.7644  134.3741  153.5361 C.2     1  UNL1        0.0143
     17 C         141.7262  133.1480  154.3995 C.2     1  UNL1        0.0883
     18 N         142.2410  133.2057  155.8072 N.am    1  UNL1       -0.1772
     19 C         142.7939  134.4894  156.3516 C.2     1  UNL1        0.2581
     20 O         143.3087  134.5471  157.7593 O.2     1  UNL1       -0.2721
     21 C         138.1076  142.5031  160.8134 C.3     1  UNL1        0.1022
     22 C         138.5154  141.9141  163.3107 C.ar    1  UNL1        0.1427
     23 C         138.9220  142.3292  164.6937 C.ar    1  UNL1        0.0372
     24 C         139.3273  143.7482  164.9621 C.ar    1  UNL1        0.0031
     25 C         139.3261  144.7521  163.8477 C.ar    1  UNL1       -0.0001
     26 C         138.9195  144.3371  162.4648 C.ar    1  UNL1        0.0001
     27 C         138.5142  142.9181  162.1963 C.ar    1  UNL1        0.0284
     28 O         138.1100  140.4951  163.0423 O.3     1  UNL1       -0.4507
     29 C         138.9619  138.6753  164.6893 C.ar    1  UNL1        0.1730
     30 C         139.9033  137.5527  165.0112 C.ar    1  UNL1        0.0401
     31 C         140.9340  137.1273  164.0080 C.ar    1  UNL1        0.0033
     32 C         141.0235  137.8244  162.6828 C.ar    1  UNL1        0.0033
     33 C         140.0822  138.9471  162.3609 C.ar    1  UNL1        0.0406
     34 C         139.0514  139.3725  163.3642 C.ar    1  UNL1        0.1789
     35 C         137.7130  138.2882  166.9344 C.3     1  UNL1        0.2526
     36 O         137.9311  139.1007  165.6926 O.3     1  UNL1       -0.4684
@<TRIPOS>BOND
     1    35    36    1
     2    36    29    1
     3    29    30   ar
     4    30    31   ar
     5    31    32   ar
     6    32    33   ar
     7    33    34   ar
     8    34    28    1
     9    28    22    1
    10    22    23   ar
    11    23    24   ar
    12    24    25   ar
    13    25    26   ar
    14    26    27   ar
    15    27    21    1
    16    21     1    1
    17     1     2    1
    18     2     3    1
    19     3     4    1
    20     4     5    1
    21     5     6    1
    22     4     7    1
    23     7     8    1
    24     8     9    1
    25     9    10   am
    26    10    11    2
    27    10    14    1
    28    14    15    1
    29    15    16    2
    30    16    17    1
    31    17    18    2
    32    18    19    1
    33    19    20    2
    34     9    12    1
    35    12    13    1
    36    34    29   ar
    37    27    22   ar
    38     6     1    1
    39    19    14    1
    40    13     4    1
@<TRIPOS>MOLECULE
*****
 36 40 0 0 0
SMALL
GASTEIGER

@<TRIPOS>ATOM
      1 N         141.6974  141.0681  163.6211 N.3     1  UNL1       -0.2689
      2 C         141.2773  141.5981  162.2822 C.3     1  UNL1        0.0724
      3 C         141.4815  140.7682  161.0495 C.3     1  UNL1        0.0175
      4 C         142.1057  139.4084  161.1557 C.3     1  UNL1        0.0060
      5 C         142.5257  138.8784  162.4946 C.3     1  UNL1        0.0175
      6 C         142.3216  139.7083  163.7273 C.3     1  UNL1        0.0724
      7 C         141.6856  139.9384  159.8167 C.3     1  UNL1        0.0216
      8 C         141.8898  139.1086  158.5840 C.3     1  UNL1        0.0934
      9 N         142.5140  137.7487  158.6901 N.am    1  UNL1       -0.2789
     10 C         142.7181  136.9189  157.4573 C.2     1  UNL1        0.2382
     11 O         143.3423  135.5591  157.5635 O.2     1  UNL1       -0.2740
     12 C         142.9340  137.2188  160.0290 C.3     1  UNL1        0.0934
     13 C         142.7299  138.0486  161.2618 C.3     1  UNL1        0.0216
     14 C         142.2981  137.4489  156.1184 C.3     1  UNL1        0.1767
     15 C         140.8698  137.3251  155.6773 C.2     1  UNL1       -0.0068
     16 C         140.4498  137.8551  154.3384 C.2     1  UNL1        0.0143
     17 C         141.4581  138.5089  153.4406 C.2     1  UNL1        0.0883
     18 N         142.8864  138.6326  153.8818 N.am    1  UNL1       -0.1772
     19 C         143.3064  138.1026  155.2207 C.2     1  UNL1        0.2581
     20 O         144.7347  138.2264  155.6619 O.2     1  UNL1       -0.2721
     21 C         141.4932  141.8979  164.8539 C.3     1  UNL1        0.1022
     22 C         139.7170  140.7895  166.3922 C.ar    1  UNL1        0.1427
     23 C         139.3516  140.1293  167.6887 C.ar    1  UNL1        0.0372
     24 C         140.3970  139.9176  168.7432 C.ar    1  UNL1        0.0031
     25 C         141.8079  140.3660  168.5014 C.ar    1  UNL1       -0.0001
     26 C         142.1733  141.0261  167.2050 C.ar    1  UNL1        0.0001
     27 C         141.1278  141.2378  166.1503 C.ar    1  UNL1        0.0284
     28 O         138.6715  141.0012  165.3376 O.3     1  UNL1       -0.4507
     29 C         137.7865  140.4100  162.9675 C.ar    1  UNL1        0.1730
     30 C         137.6529  139.4332  161.8370 C.ar    1  UNL1        0.0401
     31 C         138.2708  138.0708  161.9461 C.ar    1  UNL1        0.0033
     32 C         139.0222  137.6850  163.1858 C.ar    1  UNL1        0.0033
     33 C         139.1558  138.6619  164.3163 C.ar    1  UNL1        0.0406
     34 C         138.5379  140.0244  164.2071 C.ar    1  UNL1        0.1789
     35 C         137.9177  142.8840  162.1850 C.3     1  UNL1        0.2526
     36 O         137.1687  141.7726  162.8584 O.3     1  UNL1       -0.4684
@<TRIPOS>BOND
     1    35    36    1
     2    36    29    1
     3    29    30   ar
     4    30    31   ar
     5    31    32   ar
     6    32    33   ar
     7    33    34   ar
     8    34    28    1
     9    28    22    1
    10    22    23   ar
    11    23    24   ar
    12    24    25   ar
    13    25    26   ar
    14    26    27   ar
    15    27    21    1
    16    21     1    1
    17     1     2    1
    18     2     3    1
    19     3     4    1
    20     4     5    1
    21     5     6    1
    22     4     7    1
    23     7     8    1
    24     8     9    1
    25     9    10   am
    26    10    11    2
    27    10    14    1
    28    14    15    1
    29    15    16    2
    30    16    17    1
    31    17    18    2
    32    18    19    1
    33    19    20    2
    34     9    12    1
    35    12    13    1
    36    34    29   ar
    37    27    22   ar
    38     6     1    1
    39    19    14    1
    40    13     4    1
@<TRIPOS>MOLECULE
*****
 36 40 0 0 0
SMALL
GASTEIGER

@<TRIPOS>ATOM
      1 N         142.4684  141.6953  164.9065 N.3     1  UNL1       -0.2689
      2 C         141.8777  140.7695  163.8848 C.3     1  UNL1        0.0724
      3 C         141.4263  141.3060  162.5588 C.3     1  UNL1        0.0175
      4 C         141.5657  142.7681  162.2544 C.3     1  UNL1        0.0060
      5 C         142.1565  143.6939  163.2761 C.3     1  UNL1        0.0175
      6 C         142.6078  143.1575  164.6022 C.3     1  UNL1        0.0724
      7 C         140.9749  141.8423  161.2326 C.3     1  UNL1        0.0216
      8 C         140.5236  142.3788  159.9065 C.3     1  UNL1        0.0934
      9 N         140.6630  143.8409  159.6022 N.am    1  UNL1       -0.2789
     10 C         140.2117  144.3773  158.2760 C.2     1  UNL1        0.2382
     11 O         140.3511  145.8395  157.9717 O.2     1  UNL1       -0.2740
     12 C         141.2538  144.7667  160.6239 C.3     1  UNL1        0.0934
     13 C         141.7052  144.2303  161.9500 C.3     1  UNL1        0.0216
     14 C         139.6209  143.4516  157.2543 C.3     1  UNL1        0.1767
     15 C         138.1772  143.0551  157.3472 C.2     1  UNL1       -0.0068
     16 C         137.5865  142.1294  156.3255 C.2     1  UNL1        0.0143
     17 C         138.4394  141.6000  155.2108 C.2     1  UNL1        0.0883
     18 N         139.8831  141.9965  155.1179 N.am    1  UNL1       -0.1772
     19 C         140.4738  142.9223  156.1397 C.2     1  UNL1        0.2581
     20 O         141.9175  143.3187  156.0469 O.2     1  UNL1       -0.2721
     21 C         142.9198  141.1589  166.2327 C.3     1  UNL1        0.1022
     22 C         140.9121  141.8281  167.7398 C.ar    1  UNL1        0.1427
     23 C         140.3839  142.4263  169.0100 C.ar    1  UNL1        0.0372
     24 C         141.3352  142.9535  170.0430 C.ar    1  UNL1        0.0031
     25 C         142.8146  142.8825  169.8060 C.ar    1  UNL1       -0.0001
     26 C         143.3428  142.2843  168.5359 C.ar    1  UNL1        0.0001
     27 C         142.3916  141.7571  167.5028 C.ar    1  UNL1        0.0284
     28 O         139.9609  141.3009  166.7068 O.3     1  UNL1       -0.4507
     29 C         138.3843  141.7115  164.6830 C.ar    1  UNL1        0.1730
     30 C         137.7251  142.6539  163.7200 C.ar    1  UNL1        0.0401
     31 C         137.9834  144.1282  163.8179 C.ar    1  UNL1        0.0033
     32 C         138.9008  144.6602  164.8787 C.ar    1  UNL1        0.0033
     33 C         139.5600  143.7178  165.8417 C.ar    1  UNL1        0.0406
     34 C         139.3017  142.2434  165.7438 C.ar    1  UNL1        0.1789
     35 C         138.3238  139.5261  163.2793 C.3     1  UNL1        0.2526
     36 O         138.1260  140.2371  164.5851 O.3     1  UNL1       -0.4684
@<TRIPOS>BOND
     1    35    36    1
     2    36    29    1
     3    29    30   ar
     4    30    31   ar
     5    31    32   ar
     6    32    33   ar
     7    33    34   ar
     8    34    28    1
     9    28    22    1
    10    22    23   ar
    11    23    24   ar
    12    24    25   ar
    13    25    26   ar
    14    26    27   ar
    15    27    21    1
    16    21     1    1
    17     1     2    1
    18     2     3    1
    19     3     4    1
    20     4     5    1
    21     5     6    1
    22     4     7    1
    23     7     8    1
    24     8     9    1
    25     9    10   am
    26    10    11    2
    27    10    14    1
    28    14    15    1
    29    15    16    2
    30    16    17    1
    31    17    18    2
    32    18    19    1
    33    19    20    2
    34     9    12    1
    35    12    13    1
    36    34    29   ar
    37    27    22   ar
    38     6     1    1
    39    19    14    1
    40    13     4    1
@<TRIPOS>MOLECULE
*****
 36 40 0 0 0
SMALL
GASTEIGER

@<TRIPOS>ATOM
      1 N         142.6093  139.4845  166.3311 N.3     1  UNL1       -0.2689
      2 C         142.9971  140.6927  165.5312 C.3     1  UNL1        0.0724
      3 C         142.9938  140.6326  164.0325 C.3     1  UNL1        0.0175
      4 C         142.6027  139.3643  163.3336 C.3     1  UNL1        0.0060
      5 C         142.2148  138.1561  164.1335 C.3     1  UNL1        0.0175
      6 C         142.2181  138.2163  165.6322 C.3     1  UNL1        0.0724
      7 C         142.9905  140.5725  162.5336 C.3     1  UNL1        0.0216
      8 C         142.9872  140.5124  161.0349 C.3     1  UNL1        0.0934
      9 N         142.5960  139.2441  160.3360 N.am    1  UNL1       -0.2789
     10 C         142.5927  139.1840  158.8371 C.2     1  UNL1        0.2382
     11 O         142.2016  137.9158  158.1383 O.2     1  UNL1       -0.2740
     12 C         142.2082  138.0359  161.1359 C.3     1  UNL1        0.0934
     13 C         142.2115  138.0960  162.6347 C.3     1  UNL1        0.0216
     14 C         142.9806  140.3922  158.0373 C.3     1  UNL1        0.1767
     15 C         144.4101  140.5953  157.6307 C.2     1  UNL1       -0.0068
     16 C         144.7979  141.8035  156.8308 C.2     1  UNL1        0.0143
     17 C         143.7562  142.8086  156.4375 C.2     1  UNL1        0.0883
     18 N         142.3267  142.6055  156.8440 N.am    1  UNL1       -0.1772
     19 C         141.9389  141.3973  157.6439 C.2     1  UNL1        0.2581
     20 O         140.5094  141.1942  158.0505 O.2     1  UNL1       -0.2721
     21 C         142.6126  139.5446  167.8300 C.3     1  UNL1        0.1022
     22 C         140.7407  141.2073  168.5237 C.ar    1  UNL1        0.1427
     23 C         140.3122  142.4622  169.2250 C.ar    1  UNL1        0.0372
     24 C         141.3272  143.3092  169.9337 C.ar    1  UNL1        0.0031
     25 C         142.7707  142.9013  169.9412 C.ar    1  UNL1       -0.0001
     26 C         143.1992  141.6465  169.2400 C.ar    1  UNL1        0.0001
     27 C         142.1841  140.7994  168.5312 C.ar    1  UNL1        0.0284
     28 O         139.7256  140.3604  167.8150 O.3     1  UNL1       -0.4507
     29 C         138.8151  139.5152  165.5332 C.ar    1  UNL1        0.1730
     30 C         138.5168  139.7577  164.0833 C.ar    1  UNL1        0.0401
     31 C         138.8307  141.0878  163.4653 C.ar    1  UNL1        0.0033
     32 C         139.4431  142.1756  164.2971 C.ar    1  UNL1        0.0033
     33 C         139.7414  141.9331  165.7470 C.ar    1  UNL1        0.0406
     34 C         139.4273  140.6028  166.3651 C.ar    1  UNL1        0.1789
     35 C         137.3526  138.0545  167.1073 C.3     1  UNL1        0.2526
     36 O         138.5010  138.1849  166.1513 O.3     1  UNL1       -0.4684
@<TRIPOS>BOND
     1    35    36    1
     2    36    29    1
     3    29    30   ar
     4    30    31   ar
     5    31    32   ar
     6    32    33   ar
     7    33    34   ar
     8    34    28    1
     9    28    22    1
    10    22    23   ar
    11    23    24   ar
    12    24    25   ar
    13    25    26   ar
    14    26    27   ar
    15    27    21    1
    16    21     1    1
    17     1     2    1
    18     2     3    1
    19     3     4    1
    20     4     5    1
    21     5     6    1
    22     4     7    1
    23     7     8    1
    24     8     9    1
    25     9    10   am
    26    10    11    2
    27    10    14    1
    28    14    15    1
    29    15    16    2
    30    16    17    1
    31    17    18    2
    32    18    19    1
    33    19    20    2
    34     9    12    1
    35    12    13    1
    36    34    29   ar
    37    27    22   ar
    38     6     1    1
    39    19    14    1
    40    13     4    1
@<TRIPOS>MOLECULE
*****
 36 40 0 0 0
SMALL
GASTEIGER

@<TRIPOS>ATOM
      1 N         141.4266  142.6125  163.0449 N.3     1  UNL1       -0.2689
      2 C         142.0812  143.6630  162.1976 C.3     1  UNL1        0.0724
      3 C         142.7845  143.2740  160.9311 C.3     1  UNL1        0.0175
      4 C         142.8333  141.8346  160.5120 C.3     1  UNL1        0.0060
      5 C         142.1787  140.7842  161.3593 C.3     1  UNL1        0.0175
      6 C         141.4753  141.1731  162.6257 C.3     1  UNL1        0.0724
      7 C         143.4880  142.8851  159.6646 C.3     1  UNL1        0.0216
      8 C         144.1913  142.4961  158.3982 C.3     1  UNL1        0.0934
      9 N         144.2401  141.0567  157.9790 N.am    1  UNL1       -0.2789
     10 C         144.9435  140.6678  156.7125 C.2     1  UNL1        0.2382
     11 O         144.9922  139.2284  156.2933 O.2     1  UNL1       -0.2740
     12 C         143.5854  140.0063  158.8263 C.3     1  UNL1        0.0934
     13 C         142.8820  140.3952  160.0928 C.3     1  UNL1        0.0216
     14 C         145.5981  141.7182  155.8652 C.3     1  UNL1        0.1767
     15 C         147.0699  141.9767  155.9950 C.2     1  UNL1       -0.0068
     16 C         147.7246  143.0272  155.1477 C.2     1  UNL1        0.0143
     17 C         146.9073  143.8192  154.1705 C.2     1  UNL1        0.0883
     18 N         145.4355  143.5607  154.0407 N.am    1  UNL1       -0.1772
     19 C         144.7809  142.5102  154.8880 C.2     1  UNL1        0.2581
     20 O         143.3090  142.2517  154.7582 O.2     1  UNL1       -0.2721
     21 C         140.7231  143.0015  164.3114 C.3     1  UNL1        0.1022
     22 C         139.8428  141.2628  166.0295 C.ar    1  UNL1        0.1427
     23 C         140.0416  140.4535  167.2768 C.ar    1  UNL1        0.0372
     24 C         141.3195  140.5737  168.0530 C.ar    1  UNL1        0.0031
     25 C         142.3986  141.5031  167.5821 C.ar    1  UNL1       -0.0001
     26 C         142.1998  142.3123  166.3349 C.ar    1  UNL1        0.0001
     27 C         140.9219  142.1922  165.5586 C.ar    1  UNL1        0.0284
     28 O         138.5650  141.1427  165.2533 O.3     1  UNL1       -0.4507
     29 C         137.7513  140.4929  162.8730 C.ar    1  UNL1        0.1730
     30 C         137.6356  139.4825  161.7705 C.ar    1  UNL1        0.0401
     31 C         138.2180  138.1113  161.9457 C.ar    1  UNL1        0.0033
     32 C         138.9161  137.7506  163.2235 C.ar    1  UNL1        0.0033
     33 C         139.0317  138.7610  164.3260 C.ar    1  UNL1        0.0406
     34 C         138.4493  140.1322  164.1508 C.ar    1  UNL1        0.1789
     35 C         137.9479  142.9232  161.9757 C.3     1  UNL1        0.2526
     36 O         137.1689  141.8642  162.6978 O.3     1  UNL1       -0.4684
@<TRIPOS>BOND
     1    35    36    1
     2    36    29    1
     3    29    30   ar
     4    30    31   ar
     5    31    32   ar
     6    32    33   ar
     7    33    34   ar
     8    34    28    1
     9    28    22    1
    10    22    23   ar
    11    23    24   ar
    12    24    25   ar
    13    25    26   ar
    14    26    27   ar
    15    27    21    1
    16    21     1    1
    17     1     2    1
    18     2     3    1
    19     3     4    1
    20     4     5    1
    21     5     6    1
    22     4     7    1
    23     7     8    1
    24     8     9    1
    25     9    10   am
    26    10    11    2
    27    10    14    1
    28    14    15    1
    29    15    16    2
    30    16    17    1
    31    17    18    2
    32    18    19    1
    33    19    20    2
    34     9    12    1
    35    12    13    1
    36    34    29   ar
    37    27    22   ar
    38     6     1    1
    39    19    14    1
    40    13     4    1
