@<TRIPOS>MOLECULE
*****
 41 44 0 0 0
SMALL
GASTEIGER

@<TRIPOS>ATOM
      1 C         141.0729  144.9783  159.6949 C.ar    1  UNL1        0.0597
      2 C         141.9906  143.8622  160.0977 C.ar    1  UNL1        0.0423
      3 C         141.8270  143.2024  161.4348 C.ar    1  UNL1        0.1504
      4 C         140.7458  143.6586  162.3691 C.ar    1  UNL1        0.0744
      5 C         139.8282  144.7747  161.9663 C.ar    1  UNL1        0.1416
      6 C         139.9918  145.4345  160.6292 C.ar    1  UNL1        0.0416
      7 N         140.0842  145.6850  157.3986 N.am    1  UNL1       -0.2644
      8 C         141.2365  145.6382  158.3578 C.2     1  UNL1        0.2508
      9 O         142.5523  146.2514  157.9800 O.2     1  UNL1       -0.2698
     10 H         139.2206  145.2826  157.6466 H       1  UNL1        0.1566
     11 N         140.1538  147.9730  154.2640 N.ar    1  UNL1       -0.2357
     12 C         140.8451  146.7476  153.7437 C.ar    1  UNL1        0.0988
     13 C         140.9031  145.7413  154.8547 C.ar    1  UNL1        0.0565
     14 C         140.2478  146.3449  156.0615 C.ar    1  UNL1        0.1557
     15 N         139.7847  147.7241  155.6964 N.ar    1  UNL1       -0.1534
     16 C         139.8798  149.2271  153.4881 C.3     1  UNL1        0.2423
     17 P         140.2766  150.5595  154.0514 P.3     1  UNL1        0.3677
     18 O         140.6735  151.8919  154.6146 O.2     1  UNL1       -0.2557
     19 O         138.9668  150.6427  154.7776 O.3     1  UNL1       -0.2928
     20 C         138.4845  150.5266  157.3278 C.3     1  UNL1        0.0352
     21 C         138.8935  151.3127  156.1176 C.3     1  UNL1        0.1515
     22 O         141.5865  150.4763  153.3251 O.3     1  UNL1       -0.2928
     23 C         142.3969  151.7175  153.0954 C.3     1  UNL1        0.1515
     24 C         143.8256  151.7750  153.5488 C.3     1  UNL1        0.0352
     25 O         142.7447  142.0863  161.8376 O.3     1  UNL1       -0.4347
     26 C         142.6467  141.4939  163.2122 C.ar    1  UNL1        0.2494
     27 C         143.4507  142.0740  164.3379 C.ar    1  UNL1        0.1569
     28 N         143.3528  141.4817  165.7125 N.ar    1  UNL1       -0.2328
     29 C         142.4508  140.3092  165.9614 C.ar    1  UNL1        0.1540
     30 C         141.6468  139.7292  164.8358 C.ar    1  UNL1        0.1258
     31 N         141.7448  140.3215  163.4612 N.ar    1  UNL1       -0.2068
     32 C         142.3528  139.7169  167.3360 C.2     1  UNL1        0.2683
     33 O         143.3412  138.6785  167.7775 O.2     1  UNL1       -0.2682
     34 N         141.2664  140.1629  168.2693 N.am    1  UNL1       -0.2747
     35 C         140.1347  141.1441  168.1878 C.3     1  UNL1        0.0955
     36 C         139.7301  140.7937  169.5890 C.3     1  UNL1        0.0430
     37 C         140.8618  139.8126  169.6705 C.3     1  UNL1        0.0955
     38 O         138.7470  145.2309  162.9006 O.3     1  UNL1       -0.4791
     39 C         138.3957  144.4043  164.1019 C.3     1  UNL1        0.1661
     40 C         137.6918  143.0910  163.9289 C.3     1  UNL1        0.0472
     41 C         138.7484  144.8908  165.4763 C.3     1  UNL1        0.0472
@<TRIPOS>BOND
     1    20    21    1
     2    21    19    1
     3    19    17    1
     4    17    18    2
     5    17    16    1
     6    16    11    1
     7    11    12   ar
     8    12    13   ar
     9    13    14   ar
    10    14     7    1
    11     7     8   am
    12     8     9    2
    13     8     1    1
    14     1     2   ar
    15     2     3   ar
    16     3    25    1
    17    25    26    1
    18    26    27   ar
    19    27    28   ar
    20    28    29   ar
    21    29    32    1
    22    32    33    2
    23    32    34   am
    24    34    35    1
    25    35    36    1
    26    36    37    1
    27    29    30   ar
    28    30    31   ar
    29     3     4   ar
    30     4     5   ar
    31     5    38    1
    32    38    39    1
    33    39    40    1
    34    39    41    1
    35     5     6   ar
    36    14    15   ar
    37    17    22    1
    38    22    23    1
    39    23    24    1
    40    15    11   ar
    41     6     1   ar
    42    31    26   ar
    43    37    34    1
    44     7    10    1
@<TRIPOS>MOLECULE
*****
 41 44 0 0 0
SMALL
GASTEIGER

@<TRIPOS>ATOM
      1 C         139.0720  140.4880  160.2163 C.ar    1  UNL1        0.0597
      2 C         139.0048  139.4586  161.3052 C.ar    1  UNL1        0.0423
      3 C         138.4862  139.8344  162.6616 C.ar    1  UNL1        0.1504
      4 C         138.0346  141.2396  162.9290 C.ar    1  UNL1        0.0744
      5 C         138.1017  142.2690  161.8400 C.ar    1  UNL1        0.1416
      6 C         138.6204  141.8932  160.4837 C.ar    1  UNL1        0.0416
      7 N         139.0501  138.9010  158.1593 N.am    1  UNL1       -0.2644
      8 C         139.5907  140.1122  158.8599 C.2     1  UNL1        0.2508
      9 O         140.6499  140.9476  158.2041 O.2     1  UNL1       -0.2698
     10 H         138.3549  138.3527  158.5898 H       1  UNL1        0.1566
     11 N         141.0116  137.7204  155.0249 N.ar    1  UNL1       -0.2357
     12 C         139.7223  138.1735  154.4064 C.ar    1  UNL1        0.0988
     13 C         138.8306  138.6709  155.5053 C.ar    1  UNL1        0.0565
     14 C         139.5689  138.5252  156.8029 C.ar    1  UNL1        0.1557
     15 N         140.9167  137.9378  156.5060 N.ar    1  UNL1       -0.1534
     16 C         142.1890  137.1502  154.2912 C.3     1  UNL1        0.2423
     17 P         143.5177  137.0368  154.9780 P.3     1  UNL1        0.3677
     18 O         144.8464  136.9235  155.6648 O.2     1  UNL1       -0.2557
     19 O         143.1710  135.6458  155.4194 O.3     1  UNL1       -0.2928
     20 C         143.7123  133.8326  157.1996 C.3     1  UNL1        0.0352
     21 C         143.3521  135.2471  156.8540 C.3     1  UNL1        0.1515
     22 O         143.8644  138.4279  154.5366 O.3     1  UNL1       -0.2928
     23 C         144.3331  139.4385  155.5411 C.3     1  UNL1        0.1515
     24 C         143.4209  140.5499  155.9684 C.3     1  UNL1        0.0352
     25 O         138.4190  138.8050  163.7506 O.3     1  UNL1       -0.4347
     26 C         138.7382  139.1880  165.1653 C.ar    1  UNL1        0.2494
     27 C         137.9200  138.6356  166.2947 C.ar    1  UNL1        0.1569
     28 N         138.2393  139.0186  167.7094 N.ar    1  UNL1       -0.2328
     29 C         139.3768  139.9539  167.9947 C.ar    1  UNL1        0.1540
     30 C         140.1949  140.5062  166.8654 C.ar    1  UNL1        0.1258
     31 N         139.8757  140.1233  165.4507 N.ar    1  UNL1       -0.2068
     32 C         139.6960  140.3368  169.4094 C.2     1  UNL1        0.2683
     33 O         138.6033  140.8033  170.3250 O.2     1  UNL1       -0.2682
     34 N         141.1081  140.2533  169.9086 N.am    1  UNL1       -0.2747
     35 C         142.4224  139.8475  169.3103 C.3     1  UNL1        0.0955
     36 C         143.1050  140.1352  170.6146 C.3     1  UNL1        0.0430
     37 C         141.7908  140.5410  171.2129 C.3     1  UNL1        0.0955
     38 O         137.6502  143.6742  162.1074 O.3     1  UNL1       -0.4791
     39 C         138.4508  144.5592  163.0161 C.3     1  UNL1        0.1661
     40 C         138.2514  144.4861  164.5010 C.3     1  UNL1        0.0472
     41 C         139.4509  145.5173  162.4400 C.3     1  UNL1        0.0472
@<TRIPOS>BOND
     1    20    21    1
     2    21    19    1
     3    19    17    1
     4    17    18    2
     5    17    16    1
     6    16    11    1
     7    11    12   ar
     8    12    13   ar
     9    13    14   ar
    10    14     7    1
    11     7     8   am
    12     8     9    2
    13     8     1    1
    14     1     2   ar
    15     2     3   ar
    16     3    25    1
    17    25    26    1
    18    26    27   ar
    19    27    28   ar
    20    28    29   ar
    21    29    32    1
    22    32    33    2
    23    32    34   am
    24    34    35    1
    25    35    36    1
    26    36    37    1
    27    29    30   ar
    28    30    31   ar
    29     3     4   ar
    30     4     5   ar
    31     5    38    1
    32    38    39    1
    33    39    40    1
    34    39    41    1
    35     5     6   ar
    36    14    15   ar
    37    17    22    1
    38    22    23    1
    39    23    24    1
    40    15    11   ar
    41     6     1   ar
    42    31    26   ar
    43    37    34    1
    44     7    10    1
@<TRIPOS>MOLECULE
*****
 41 44 0 0 0
SMALL
GASTEIGER

@<TRIPOS>ATOM
      1 C         141.3970  138.6208  158.3880 C.ar    1  UNL1        0.0597
      2 C         140.1119  138.4156  159.1338 C.ar    1  UNL1        0.0423
      3 C         139.6845  139.4043  160.1777 C.ar    1  UNL1        0.1504
      4 C         140.5422  140.5982  160.4758 C.ar    1  UNL1        0.0744
      5 C         141.8273  140.8035  159.7300 C.ar    1  UNL1        0.1416
      6 C         142.2547  139.8148  158.6861 C.ar    1  UNL1        0.0416
      7 N         140.7953  136.8263  156.6082 N.am    1  UNL1       -0.2644
      8 C         141.8244  137.6321  157.3440 C.2     1  UNL1        0.2508
      9 O         143.2810  137.4494  157.0359 O.2     1  UNL1       -0.2698
     10 H         139.8393  136.9462  156.8105 H       1  UNL1        0.1566
     11 N         142.1764  133.8803  154.4917 N.ar    1  UNL1       -0.2357
     12 C         141.5847  134.7520  153.4238 C.ar    1  UNL1        0.0988
     13 C         140.9953  135.9617  154.0868 C.ar    1  UNL1        0.0565
     14 C         141.2228  135.8375  155.5643 C.ar    1  UNL1        0.1557
     15 N         141.9527  134.5512  155.8145 N.ar    1  UNL1       -0.1534
     16 C         142.8699  132.5682  154.2747 C.3     1  UNL1        0.2423
     17 P         142.8513  131.5230  155.3506 P.3     1  UNL1        0.3677
     18 O         142.8326  130.4779  156.4263 O.2     1  UNL1       -0.2557
     19 O         144.1964  131.9873  155.8249 O.3     1  UNL1       -0.2928
     20 C         145.5216  132.1488  158.0537 C.3     1  UNL1        0.0352
     21 C         144.3511  132.5509  157.2063 C.3     1  UNL1        0.1515
     22 O         141.5061  131.0588  154.8762 O.3     1  UNL1       -0.2928
     23 C         141.1893  129.5931  154.8370 C.3     1  UNL1        0.1515
     24 C         139.7777  129.1254  155.0331 C.3     1  UNL1        0.0352
     25 O         138.3993  139.1991  160.9236 O.3     1  UNL1       -0.4347
     26 C         138.3976  139.1789  162.4235 C.ar    1  UNL1        0.2494
     27 C         138.8195  137.9406  163.1574 C.ar    1  UNL1        0.1569
     28 N         138.8179  137.9204  164.6572 N.ar    1  UNL1       -0.2328
     29 C         138.3943  139.1386  165.4232 C.ar    1  UNL1        0.1540
     30 C         137.9724  140.3769  164.6893 C.ar    1  UNL1        0.1258
     31 N         137.9741  140.3970  163.1895 N.ar    1  UNL1       -0.2068
     32 C         138.3926  139.1184  166.9231 C.2     1  UNL1        0.2683
     33 O         137.4390  138.2256  167.6601 O.2     1  UNL1       -0.2682
     34 N         139.3447  139.9912  167.6859 N.am    1  UNL1       -0.2747
     35 C         140.4079  140.9811  167.3122 C.3     1  UNL1        0.0955
     36 C         140.6911  141.2255  168.7648 C.3     1  UNL1        0.0430
     37 C         139.6279  140.2356  169.1386 C.3     1  UNL1        0.0955
     38 O         142.6850  141.9974  160.0281 O.3     1  UNL1       -0.4791
     39 C         143.4629  142.0610  161.3090 C.3     1  UNL1        0.1661
     40 C         143.6527  143.3753  162.0067 C.3     1  UNL1        0.0472
     41 C         144.0509  140.8104  161.8924 C.3     1  UNL1        0.0472
@<TRIPOS>BOND
     1    20    21    1
     2    21    19    1
     3    19    17    1
     4    17    18    2
     5    17    16    1
     6    16    11    1
     7    11    12   ar
     8    12    13   ar
     9    13    14   ar
    10    14     7    1
    11     7     8   am
    12     8     9    2
    13     8     1    1
    14     1     2   ar
    15     2     3   ar
    16     3    25    1
    17    25    26    1
    18    26    27   ar
    19    27    28   ar
    20    28    29   ar
    21    29    32    1
    22    32    33    2
    23    32    34   am
    24    34    35    1
    25    35    36    1
    26    36    37    1
    27    29    30   ar
    28    30    31   ar
    29     3     4   ar
    30     4     5   ar
    31     5    38    1
    32    38    39    1
    33    39    40    1
    34    39    41    1
    35     5     6   ar
    36    14    15   ar
    37    17    22    1
    38    22    23    1
    39    23    24    1
    40    15    11   ar
    41     6     1   ar
    42    31    26   ar
    43    37    34    1
    44     7    10    1
@<TRIPOS>MOLECULE
*****
 41 44 0 0 0
SMALL
GASTEIGER

@<TRIPOS>ATOM
      1 C         144.4594  142.0314  158.9276 C.ar    1  UNL1        0.0597
      2 C         143.6925  141.0729  158.0656 C.ar    1  UNL1        0.0423
      3 C         144.1665  140.7705  156.6751 C.ar    1  UNL1        0.1504
      4 C         145.4075  141.4266  156.1464 C.ar    1  UNL1        0.0744
      5 C         146.1744  142.3851  157.0083 C.ar    1  UNL1        0.1416
      6 C         145.7004  142.6875  158.3989 C.ar    1  UNL1        0.0416
      7 N         144.2399  141.3559  161.4267 N.am    1  UNL1       -0.2644
      8 C         143.9854  142.3339  160.3182 C.2     1  UNL1        0.2508
      9 O         143.2569  143.6144  160.6004 O.2     1  UNL1       -0.2698
     10 H         144.7180  140.5155  161.2415 H       1  UNL1        0.1566
     11 N         142.4470  141.6717  164.8547 N.ar    1  UNL1       -0.2357
     12 C         143.6261  142.5761  165.0599 C.ar    1  UNL1        0.0988
     13 C         144.4412  142.5678  163.8007 C.ar    1  UNL1        0.0565
     14 C         143.7659  141.6584  162.8174 C.ar    1  UNL1        0.1557
     15 N         142.5334  141.1046  163.4687 N.ar    1  UNL1       -0.1534
     16 C         141.3705  141.3850  165.8591 C.3     1  UNL1        0.2423
     17 P         139.9281  141.4557  165.4536 P.3     1  UNL1        0.3677
     18 O         138.4857  141.5265  165.0480 O.2     1  UNL1       -0.2557
     19 O         139.8339  139.9605  165.5275 O.3     1  UNL1       -0.2928
     20 C         137.8758  138.7976  166.7779 C.3     1  UNL1        0.0352
     21 C         138.4916  139.2914  165.5024 C.3     1  UNL1        0.1515
     22 O         140.0223  142.9510  165.3796 O.3     1  UNL1       -0.2928
     23 C         138.8401  143.7555  164.9268 C.3     1  UNL1        0.1515
     24 C         138.4273  144.9779  165.6918 C.3     1  UNL1        0.0352
     25 O         143.3995  139.8119  155.8131 O.3     1  UNL1       -0.4347
     26 C         143.4333  138.3424  156.1120 C.ar    1  UNL1        0.2494
     27 C         144.1279  137.4016  155.1725 C.ar    1  UNL1        0.1569
     28 N         144.1617  135.9321  155.4715 N.ar    1  UNL1       -0.2328
     29 C         143.5010  135.4033  156.7100 C.ar    1  UNL1        0.1540
     30 C         142.8064  136.3441  157.6495 C.ar    1  UNL1        0.1258
     31 N         142.7726  137.8136  157.3505 N.ar    1  UNL1       -0.2068
     32 C         143.5348  133.9338  157.0090 C.2     1  UNL1        0.2683
     33 O         144.4334  133.4087  158.0891 O.2     1  UNL1       -0.2682
     34 N         142.6699  132.9894  156.2278 N.am    1  UNL1       -0.2747
     35 C         141.6776  133.1359  155.1125 C.3     1  UNL1        0.0955
     36 C         141.4467  131.6538  155.1232 C.3     1  UNL1        0.0430
     37 C         142.4390  131.5073  156.2385 C.3     1  UNL1        0.0955
     38 O         147.4154  143.0412  156.4796 O.3     1  UNL1       -0.4791
     39 C         148.0597  142.5273  155.2263 C.3     1  UNL1        0.1661
     40 C         149.1948  141.5506  155.3128 C.3     1  UNL1        0.0472
     41 C         147.5689  142.9902  153.8865 C.3     1  UNL1        0.0472
@<TRIPOS>BOND
     1    20    21    1
     2    21    19    1
     3    19    17    1
     4    17    18    2
     5    17    16    1
     6    16    11    1
     7    11    12   ar
     8    12    13   ar
     9    13    14   ar
    10    14     7    1
    11     7     8   am
    12     8     9    2
    13     8     1    1
    14     1     2   ar
    15     2     3   ar
    16     3    25    1
    17    25    26    1
    18    26    27   ar
    19    27    28   ar
    20    28    29   ar
    21    29    32    1
    22    32    33    2
    23    32    34   am
    24    34    35    1
    25    35    36    1
    26    36    37    1
    27    29    30   ar
    28    30    31   ar
    29     3     4   ar
    30     4     5   ar
    31     5    38    1
    32    38    39    1
    33    39    40    1
    34    39    41    1
    35     5     6   ar
    36    14    15   ar
    37    17    22    1
    38    22    23    1
    39    23    24    1
    40    15    11   ar
    41     6     1   ar
    42    31    26   ar
    43    37    34    1
    44     7    10    1
@<TRIPOS>MOLECULE
*****
 41 44 0 0 0
SMALL
GASTEIGER

@<TRIPOS>ATOM
      1 C         143.7612  142.4838  158.7720 C.ar    1  UNL1        0.0597
      2 C         143.0427  141.4845  157.9146 C.ar    1  UNL1        0.0423
      3 C         143.7488  140.8452  156.7559 C.ar    1  UNL1        0.1504
      4 C         145.1734  141.2052  156.4545 C.ar    1  UNL1        0.0744
      5 C         145.8919  142.2045  157.3118 C.ar    1  UNL1        0.1416
      6 C         145.1858  142.8438  158.4706 C.ar    1  UNL1        0.0416
      7 N         141.5639  143.2829  159.9048 N.am    1  UNL1       -0.2644
      8 C         143.0551  143.1231  159.9308 C.2     1  UNL1        0.2508
      9 O         143.8403  143.6026  161.1155 O.2     1  UNL1       -0.2698
     10 H         141.0485  142.9682  159.1272 H       1  UNL1        0.1566
     11 N         139.9153  144.3022  163.2677 N.ar    1  UNL1       -0.2357
     12 C         139.6272  145.5099  162.4259 C.ar    1  UNL1        0.0988
     13 C         140.2097  145.2750  161.0636 C.ar    1  UNL1        0.0565
     14 C         140.8578  143.9222  161.0636 C.ar    1  UNL1        0.1557
     15 N         140.6758  143.3210  162.4258 N.ar    1  UNL1       -0.1534
     16 C         139.5134  144.1096  164.6999 C.3     1  UNL1        0.2423
     17 P         139.6005  142.7498  165.3270 P.3     1  UNL1        0.3677
     18 O         139.6877  141.3900  165.9542 O.2     1  UNL1       -0.2557
     19 O         138.2490  142.4078  164.7736 O.3     1  UNL1       -0.2928
     20 C         137.5220  141.2820  162.5479 C.3     1  UNL1        0.0352
     21 C         138.0703  141.1737  163.9399 C.3     1  UNL1        0.1515
     22 O         140.9522  143.0918  165.8805 O.3     1  UNL1       -0.2928
     23 C         142.1339  142.2240  165.5634 C.3     1  UNL1        0.1515
     24 C         143.5135  142.8125  165.5464 C.3     1  UNL1        0.0352
     25 O         143.0302  139.8459  155.8984 O.3     1  UNL1       -0.4347
     26 C         143.1584  138.3796  156.1878 C.ar    1  UNL1        0.2494
     27 C         142.5113  137.7968  157.4092 C.ar    1  UNL1        0.1569
     28 N         142.6395  136.3306  157.6986 N.ar    1  UNL1       -0.2328
     29 C         143.4149  135.4472  156.7666 C.ar    1  UNL1        0.1540
     30 C         144.0620  136.0300  155.5454 C.ar    1  UNL1        0.1258
     31 N         143.9338  137.4962  155.2560 N.ar    1  UNL1       -0.2068
     32 C         143.5431  133.9810  157.0560 C.2     1  UNL1        0.2683
     33 O         144.5017  133.5049  158.1069 O.2     1  UNL1       -0.2682
     34 N         142.7125  132.9908  156.2945 N.am    1  UNL1       -0.2747
     35 C         141.6816  133.0835  155.2090 C.3     1  UNL1        0.0955
     36 C         141.5381  131.5904  155.2177 C.3     1  UNL1        0.0430
     37 C         142.5690  131.4977  156.3033 C.3     1  UNL1        0.0955
     38 O         147.3165  142.5645  157.0105 O.3     1  UNL1       -0.4791
     39 C         147.8183  142.5212  155.5976 C.3     1  UNL1        0.1661
     40 C         148.9376  141.5938  155.2273 C.3     1  UNL1        0.0472
     41 C         147.2007  143.4052  154.5549 C.3     1  UNL1        0.0472
@<TRIPOS>BOND
     1    20    21    1
     2    21    19    1
     3    19    17    1
     4    17    18    2
     5    17    16    1
     6    16    11    1
     7    11    12   ar
     8    12    13   ar
     9    13    14   ar
    10    14     7    1
    11     7     8   am
    12     8     9    2
    13     8     1    1
    14     1     2   ar
    15     2     3   ar
    16     3    25    1
    17    25    26    1
    18    26    27   ar
    19    27    28   ar
    20    28    29   ar
    21    29    32    1
    22    32    33    2
    23    32    34   am
    24    34    35    1
    25    35    36    1
    26    36    37    1
    27    29    30   ar
    28    30    31   ar
    29     3     4   ar
    30     4     5   ar
    31     5    38    1
    32    38    39    1
    33    39    40    1
    34    39    41    1
    35     5     6   ar
    36    14    15   ar
    37    17    22    1
    38    22    23    1
    39    23    24    1
    40    15    11   ar
    41     6     1   ar
    42    31    26   ar
    43    37    34    1
    44     7    10    1
@<TRIPOS>MOLECULE
*****
 41 44 0 0 0
SMALL
GASTEIGER

@<TRIPOS>ATOM
      1 C         141.8792  138.3879  158.1769 C.ar    1  UNL1        0.0597
      2 C         140.5200  138.3861  158.8112 C.ar    1  UNL1        0.0423
      3 C         140.1564  139.4459  159.8085 C.ar    1  UNL1        0.1504
      4 C         141.1521  140.5074  160.1716 C.ar    1  UNL1        0.0744
      5 C         142.5114  140.5091  159.5373 C.ar    1  UNL1        0.1416
      6 C         142.8749  139.4493  158.5400 C.ar    1  UNL1        0.0416
      7 N         141.1797  136.4330  156.6151 N.am    1  UNL1       -0.2644
      8 C         142.2428  137.3281  157.1795 C.2     1  UNL1        0.2508
      9 O         143.6695  137.1635  156.7466 O.2     1  UNL1       -0.2698
     10 H         140.2433  136.5411  156.8992 H       1  UNL1        0.1566
     11 N         142.4215  133.3384  154.6284 N.ar    1  UNL1       -0.2357
     12 C         141.7841  134.1466  153.5372 C.ar    1  UNL1        0.0988
     13 C         141.2413  135.4043  154.1487 C.ar    1  UNL1        0.0565
     14 C         141.5433  135.3732  155.6177 C.ar    1  UNL1        0.1557
     15 N         142.2727  134.0965  155.9141 N.ar    1  UNL1       -0.1534
     16 C         143.0903  132.0060  154.4628 C.3     1  UNL1        0.2423
     17 P         142.7496  130.8756  155.3881 P.3     1  UNL1        0.3677
     18 O         142.4090  129.7452  156.3134 O.2     1  UNL1       -0.2557
     19 O         141.3660  130.8204  154.8115 O.3     1  UNL1       -0.2928
     20 C         140.4353  130.6340  152.3930 C.3     1  UNL1        0.0352
     21 C         141.0979  130.0039  153.5821 C.3     1  UNL1        0.1515
     22 O         144.1333  130.9308  155.9648 O.3     1  UNL1       -0.2928
     23 C         144.3248  131.1686  157.4335 C.3     1  UNL1        0.1515
     24 C         145.3773  132.1265  157.9072 C.3     1  UNL1        0.0352
     25 O         138.7971  139.4442  160.4429 O.3     1  UNL1       -0.4347
     26 C         138.6656  139.3523  161.9343 C.ar    1  UNL1        0.2494
     27 C         138.1692  140.5314  162.7175 C.ar    1  UNL1        0.1569
     28 N         138.0377  140.4395  164.2089 N.ar    1  UNL1       -0.2328
     29 C         138.4025  139.1685  164.9171 C.ar    1  UNL1        0.1540
     30 C         138.8988  137.9895  164.1338 C.ar    1  UNL1        0.1258
     31 N         139.0304  138.0814  162.6425 N.ar    1  UNL1       -0.2068
     32 C         138.2710  139.0766  166.4084 C.2     1  UNL1        0.2683
     33 O         137.2196  138.1960  167.0158 O.2     1  UNL1       -0.2682
     34 N         139.1910  139.8654  167.2925 N.am    1  UNL1       -0.2747
     35 C         140.3244  140.8202  167.0609 C.3     1  UNL1        0.0955
     36 C         140.4920  140.9809  168.5428 C.3     1  UNL1        0.0430
     37 C         139.3585  140.0261  168.7744 C.3     1  UNL1        0.0955
     38 O         143.5071  141.5706  159.9003 O.3     1  UNL1       -0.4791
     39 C         144.0971  141.6054  161.2790 C.3     1  UNL1        0.1661
     40 C         144.3746  142.9215  161.9430 C.3     1  UNL1        0.0472
     41 C         144.4096  140.3242  161.9937 C.3     1  UNL1        0.0472
@<TRIPOS>BOND
     1    20    21    1
     2    21    19    1
     3    19    17    1
     4    17    18    2
     5    17    16    1
     6    16    11    1
     7    11    12   ar
     8    12    13   ar
     9    13    14   ar
    10    14     7    1
    11     7     8   am
    12     8     9    2
    13     8     1    1
    14     1     2   ar
    15     2     3   ar
    16     3    25    1
    17    25    26    1
    18    26    27   ar
    19    27    28   ar
    20    28    29   ar
    21    29    32    1
    22    32    33    2
    23    32    34   am
    24    34    35    1
    25    35    36    1
    26    36    37    1
    27    29    30   ar
    28    30    31   ar
    29     3     4   ar
    30     4     5   ar
    31     5    38    1
    32    38    39    1
    33    39    40    1
    34    39    41    1
    35     5     6   ar
    36    14    15   ar
    37    17    22    1
    38    22    23    1
    39    23    24    1
    40    15    11   ar
    41     6     1   ar
    42    31    26   ar
    43    37    34    1
    44     7    10    1
@<TRIPOS>MOLECULE
*****
 41 44 0 0 0
SMALL
GASTEIGER

@<TRIPOS>ATOM
      1 C         141.3035  144.4314  159.8216 C.ar    1  UNL1        0.0597
      2 C         141.7636  143.0038  159.8061 C.ar    1  UNL1        0.0423
      3 C         141.7572  142.1999  161.0724 C.ar    1  UNL1        0.1504
      4 C         141.2906  142.8236  162.3543 C.ar    1  UNL1        0.0744
      5 C         140.8305  144.2512  162.3699 C.ar    1  UNL1        0.1416
      6 C         140.8370  145.0551  161.1035 C.ar    1  UNL1        0.0416
      7 N         140.1173  145.2119  157.6459 N.am    1  UNL1       -0.2644
      8 C         141.3100  145.2353  158.5552 C.2     1  UNL1        0.2508
      9 O         142.5092  146.0627  158.1983 O.2     1  UNL1       -0.2698
     10 H         139.3303  144.6688  157.8802 H       1  UNL1        0.1566
     11 N         139.7519  147.7988  154.7753 N.ar    1  UNL1       -0.2357
     12 C         140.5156  146.7070  154.0862 C.ar    1  UNL1        0.0988
     13 C         140.7455  145.6051  155.0777 C.ar    1  UNL1        0.0565
     14 C         140.1238  146.0158  156.3795 C.ar    1  UNL1        0.1557
     15 N         139.5098  147.3716  156.1927 N.ar    1  UNL1       -0.1534
     16 C         139.3083  149.0908  154.1559 C.3     1  UNL1        0.2423
     17 P         139.6984  150.3963  154.7833 P.3     1  UNL1        0.3677
     18 O         140.0884  151.7018  155.4106 O.2     1  UNL1       -0.2557
     19 O         140.9310  150.4383  153.9296 O.3     1  UNL1       -0.2928
     20 C         143.1271  151.6227  153.2055 C.3     1  UNL1        0.0352
     21 C         141.9002  151.5748  154.0671 C.3     1  UNL1        0.1515
     22 O         138.4657  150.3543  155.6370 O.3     1  UNL1       -0.2928
     23 C         138.5508  150.6978  157.0946 C.3     1  UNL1        0.1515
     24 C         137.9861  149.7603  158.1204 C.3     1  UNL1        0.0352
     25 O         142.2173  140.7723  161.0569 O.3     1  UNL1       -0.4347
     26 C         142.3119  140.0289  159.7575 C.ar    1  UNL1        0.2494
     27 C         143.6307  139.9174  159.0515 C.ar    1  UNL1        0.1569
     28 N         143.7254  139.1741  157.7521 N.ar    1  UNL1       -0.2328
     29 C         142.5011  138.5421  157.1587 C.ar    1  UNL1        0.1540
     30 C         141.1824  138.6535  157.8647 C.ar    1  UNL1        0.1258
     31 N         141.0878  139.3969  159.1641 N.ar    1  UNL1       -0.2068
     32 C         142.5958  137.7987  155.8593 C.2     1  UNL1        0.2683
     33 O         142.3255  138.5102  154.5668 O.2     1  UNL1       -0.2682
     34 N         142.9606  136.3437  155.8525 N.am    1  UNL1       -0.2747
     35 C         143.2903  135.3279  156.9058 C.3     1  UNL1        0.0955
     36 C         143.4766  134.2861  155.8428 C.3     1  UNL1        0.0430
     37 C         143.1469  135.3019  154.7895 C.3     1  UNL1        0.0955
     38 O         140.3639  144.8749  163.6518 O.3     1  UNL1       -0.4791
     39 C         138.9433  144.6968  164.0990 C.3     1  UNL1        0.1661
     40 C         138.5699  144.9501  165.5295 C.3     1  UNL1        0.0472
     41 C         137.8959  144.2653  163.1156 C.3     1  UNL1        0.0472
@<TRIPOS>BOND
     1    20    21    1
     2    21    19    1
     3    19    17    1
     4    17    18    2
     5    17    16    1
     6    16    11    1
     7    11    12   ar
     8    12    13   ar
     9    13    14   ar
    10    14     7    1
    11     7     8   am
    12     8     9    2
    13     8     1    1
    14     1     2   ar
    15     2     3   ar
    16     3    25    1
    17    25    26    1
    18    26    27   ar
    19    27    28   ar
    20    28    29   ar
    21    29    32    1
    22    32    33    2
    23    32    34   am
    24    34    35    1
    25    35    36    1
    26    36    37    1
    27    29    30   ar
    28    30    31   ar
    29     3     4   ar
    30     4     5   ar
    31     5    38    1
    32    38    39    1
    33    39    40    1
    34    39    41    1
    35     5     6   ar
    36    14    15   ar
    37    17    22    1
    38    22    23    1
    39    23    24    1
    40    15    11   ar
    41     6     1   ar
    42    31    26   ar
    43    37    34    1
    44     7    10    1
@<TRIPOS>MOLECULE
*****
 41 44 0 0 0
SMALL
GASTEIGER

@<TRIPOS>ATOM
      1 C         138.5702  142.4494  158.7657 C.ar    1  UNL1        0.0597
      2 C         137.7475  141.4540  158.0026 C.ar    1  UNL1        0.0423
      3 C         137.7936  141.4350  156.5035 C.ar    1  UNL1        0.1504
      4 C         138.6625  142.4114  155.7674 C.ar    1  UNL1        0.0744
      5 C         139.4851  143.4068  156.5305 C.ar    1  UNL1        0.1416
      6 C         139.4390  143.4258  158.0296 C.ar    1  UNL1        0.0416
      7 N         138.8877  143.7181  161.0107 N.am    1  UNL1       -0.2644
      8 C         138.5241  142.4684  160.2649 C.2     1  UNL1        0.2508
      9 O         138.1144  141.2378  161.0184 O.2     1  UNL1       -0.2698
     10 H         139.1566  144.5258  160.5162 H       1  UNL1        0.1566
     11 N         139.4462  143.4414  164.8418 N.ar    1  UNL1       -0.2357
     12 C         138.0951  144.0914  164.7920 C.ar    1  UNL1        0.0988
     13 C         137.7215  144.2741  163.3507 C.ar    1  UNL1        0.0565
     14 C         138.8416  143.7371  162.5099 C.ar    1  UNL1        0.1557
     15 N         139.9075  143.2225  163.4314 N.ar    1  UNL1       -0.1534
     16 C         140.2029  143.0749  166.0838 C.3     1  UNL1        0.2423
     17 P         140.8354  141.7201  166.2044 P.3     1  UNL1        0.3677
     18 O         141.4680  140.3654  166.3251 O.2     1  UNL1       -0.2557
     19 O         139.4837  141.1086  166.4254 O.3     1  UNL1       -0.2928
     20 C         138.1368  138.8951  166.6151 C.3     1  UNL1        0.0352
     21 C         139.2057  139.7125  165.9524 C.3     1  UNL1        0.1515
     22 O         142.1872  142.3316  165.9835 O.3     1  UNL1       -0.2928
     23 C         143.0011  141.9395  164.7860 C.3     1  UNL1        0.1515
     24 C         144.4787  142.1967  164.7666 C.3     1  UNL1        0.0352
     25 O         136.9709  140.4396  155.7404 O.3     1  UNL1       -0.4347
     26 C         135.4734  140.5172  155.7793 C.ar    1  UNL1        0.2494
     27 C         134.7292  141.2075  154.6749 C.ar    1  UNL1        0.1569
     28 N         133.2317  141.2852  154.7138 N.ar    1  UNL1       -0.2328
     29 C         132.4785  140.6725  155.8572 C.ar    1  UNL1        0.1540
     30 C         133.2227  139.9822  156.9616 C.ar    1  UNL1        0.1258
     31 N         134.7201  139.9046  156.9226 N.ar    1  UNL1       -0.2068
     32 C         130.9810  140.7501  155.8962 C.2     1  UNL1        0.2683
     33 O         130.2895  142.0490  155.6052 O.2     1  UNL1       -0.2682
     34 N         130.1750  139.5288  156.2261 N.am    1  UNL1       -0.2747
     35 C         130.4987  138.1032  156.5624 C.3     1  UNL1        0.0955
     36 C         129.0351  137.8017  156.6928 C.3     1  UNL1        0.0430
     37 C         128.7114  139.2272  156.3566 C.3     1  UNL1        0.0955
     38 O         140.3540  144.3832  155.7944 O.3     1  UNL1       -0.4791
     39 C         140.6752  145.7131  156.4093 C.3     1  UNL1        0.1661
     40 C         139.6841  146.8360  156.3281 C.3     1  UNL1        0.0472
     41 C         141.9877  145.9200  157.1055 C.3     1  UNL1        0.0472
@<TRIPOS>BOND
     1    20    21    1
     2    21    19    1
     3    19    17    1
     4    17    18    2
     5    17    16    1
     6    16    11    1
     7    11    12   ar
     8    12    13   ar
     9    13    14   ar
    10    14     7    1
    11     7     8   am
    12     8     9    2
    13     8     1    1
    14     1     2   ar
    15     2     3   ar
    16     3    25    1
    17    25    26    1
    18    26    27   ar
    19    27    28   ar
    20    28    29   ar
    21    29    32    1
    22    32    33    2
    23    32    34   am
    24    34    35    1
    25    35    36    1
    26    36    37    1
    27    29    30   ar
    28    30    31   ar
    29     3     4   ar
    30     4     5   ar
    31     5    38    1
    32    38    39    1
    33    39    40    1
    34    39    41    1
    35     5     6   ar
    36    14    15   ar
    37    17    22    1
    38    22    23    1
    39    23    24    1
    40    15    11   ar
    41     6     1   ar
    42    31    26   ar
    43    37    34    1
    44     7    10    1
@<TRIPOS>MOLECULE
*****
 41 44 0 0 0
SMALL
GASTEIGER

@<TRIPOS>ATOM
      1 C         141.2803  138.2824  159.7443 C.ar    1  UNL1        0.0597
      2 C         142.4308  137.6872  158.9881 C.ar    1  UNL1        0.0423
      3 C         142.3649  137.5676  157.4943 C.ar    1  UNL1        0.1504
      4 C         141.1483  138.0431  156.7568 C.ar    1  UNL1        0.0744
      5 C         139.9978  138.6383  157.5131 C.ar    1  UNL1        0.1416
      6 C         140.0637  138.7579  159.0068 C.ar    1  UNL1        0.0416
      7 N         142.1988  139.4629  161.8687 N.am    1  UNL1       -0.2644
      8 C         141.3462  138.4020  161.2381 C.2     1  UNL1        0.2508
      9 O         140.5595  137.4608  162.1013 O.2     1  UNL1       -0.2698
     10 H         142.7152  140.0806  161.3021 H       1  UNL1        0.1566
     11 N         141.8411  140.3016  165.6415 N.ar    1  UNL1       -0.2357
     12 C         142.8914  139.2314  165.6808 C.ar    1  UNL1        0.0988
     13 C         143.1533  138.7870  164.2722 C.ar    1  UNL1        0.0565
     14 C         142.2648  139.5825  163.3625 C.ar    1  UNL1        0.1557
     15 N         141.4538  140.5186  164.2087 N.ar    1  UNL1       -0.1534
     16 C         141.2771  141.0274  166.8268 C.3     1  UNL1        0.2423
     17 P         140.3411  140.3217  167.7628 P.3     1  UNL1        0.3677
     18 O         139.4053  139.6160  168.6988 O.2     1  UNL1       -0.2557
     19 O         139.2471  140.4172  166.7410 O.3     1  UNL1       -0.2928
     20 C         138.8841  138.2083  165.4225 C.3     1  UNL1        0.0352
     21 C         138.4071  139.2149  166.4271 C.3     1  UNL1        0.1515
     22 O         141.4352  140.2262  168.7845 O.3     1  UNL1       -0.2928
     23 C         141.8928  141.4564  169.5107 C.3     1  UNL1        0.1515
     24 C         143.3544  141.6769  169.7655 C.3     1  UNL1        0.0352
     25 O         143.5155  136.9724  156.7380 O.3     1  UNL1       -0.4347
     26 C         143.4646  135.5381  156.3019 C.ar    1  UNL1        0.2494
     27 C         143.0798  135.1958  154.8930 C.ar    1  UNL1        0.1569
     28 N         143.0290  133.7615  154.4569 N.ar    1  UNL1       -0.2328
     29 C         143.3628  132.6695  155.4297 C.ar    1  UNL1        0.1540
     30 C         143.7475  133.0118  156.8385 C.ar    1  UNL1        0.1258
     31 N         143.7984  134.4461  157.2746 N.ar    1  UNL1       -0.2068
     32 C         143.3119  131.2352  154.9935 C.2     1  UNL1        0.2683
     33 O         144.5828  130.4554  154.8302 O.2     1  UNL1       -0.2682
     34 N         141.9901  130.5807  154.7208 N.am    1  UNL1       -0.2747
     35 C         140.5573  131.0217  154.7727 C.3     1  UNL1        0.0955
     36 C         140.1208  129.6550  154.3351 C.3     1  UNL1        0.0430
     37 C         141.5535  129.2139  154.2832 C.3     1  UNL1        0.0955
     38 O         138.7812  139.1139  156.7756 O.3     1  UNL1       -0.4791
     39 C         138.6833  138.9260  155.2907 C.3     1  UNL1        0.1661
     40 C         139.0603  140.0458  154.3665 C.3     1  UNL1        0.0472
     41 C         138.2082  137.6184  154.7298 C.3     1  UNL1        0.0472
@<TRIPOS>BOND
     1    20    21    1
     2    21    19    1
     3    19    17    1
     4    17    18    2
     5    17    16    1
     6    16    11    1
     7    11    12   ar
     8    12    13   ar
     9    13    14   ar
    10    14     7    1
    11     7     8   am
    12     8     9    2
    13     8     1    1
    14     1     2   ar
    15     2     3   ar
    16     3    25    1
    17    25    26    1
    18    26    27   ar
    19    27    28   ar
    20    28    29   ar
    21    29    32    1
    22    32    33    2
    23    32    34   am
    24    34    35    1
    25    35    36    1
    26    36    37    1
    27    29    30   ar
    28    30    31   ar
    29     3     4   ar
    30     4     5   ar
    31     5    38    1
    32    38    39    1
    33    39    40    1
    34    39    41    1
    35     5     6   ar
    36    14    15   ar
    37    17    22    1
    38    22    23    1
    39    23    24    1
    40    15    11   ar
    41     6     1   ar
    42    31    26   ar
    43    37    34    1
    44     7    10    1
