@<TRIPOS>MOLECULE
*****
 27 29 0 0 0
SMALL
GASTEIGER

@<TRIPOS>ATOM
      1 C         139.9834  140.4982  166.4186 C.2     1  UNL1       -0.0222
      2 C         140.6980  141.8161  166.4688 C.2     1  UNL1       -0.0040
      3 C         141.3327  142.2769  167.7475 C.ar    1  UNL1       -0.0003
      4 C         140.5435  143.0989  168.7229 C.ar    1  UNL1       -0.0000
      5 C         141.1781  143.5597  170.0014 C.ar    1  UNL1       -0.0000
      6 C         142.6021  143.1984  170.3047 C.ar    1  UNL1       -0.0000
      7 C         143.3913  142.3764  169.3293 C.ar    1  UNL1       -0.0000
      8 C         142.7566  141.9157  168.0507 C.ar    1  UNL1       -0.0000
      9 C         140.7780  142.6732  165.2404 C.ar    1  UNL1       -0.0003
     10 C         139.8791  143.8655  165.0980 C.ar    1  UNL1       -0.0000
     11 C         139.9590  144.7226  163.8696 C.ar    1  UNL1        0.0000
     12 C         140.9379  144.3874  162.7836 C.ar    1  UNL1        0.0000
     13 C         141.8369  143.1951  162.9260 C.ar    1  UNL1        0.0000
     14 C         141.7569  142.3380  164.1544 C.ar    1  UNL1       -0.0000
     15 C         141.0179  145.2445  161.5552 C.2     1  UNL1        0.0012
     16 C         141.0813  144.6072  160.1988 C.2     1  UNL1        0.0151
     17 C         141.1613  145.4643  158.9704 C.2     1  UNL1        0.0729
     18 O         139.9105  146.0384  158.3738 O.co2   1  UNL1       -0.5446
     19 O         142.4920  145.7473  158.3387 O.co2   1  UNL1       -0.5446
     20 C         139.3487  140.0374  165.1399 C.ar    1  UNL1       -0.0040
     21 C         139.8373  138.7887  164.4676 C.ar    1  UNL1       -0.0003
     22 C         139.2026  138.3280  163.1890 C.ar    1  UNL1       -0.0000
     23 C         138.0794  139.1159  162.5827 C.ar    1  UNL1       -0.0000
     24 C         137.5909  140.3646  163.2551 C.ar    1  UNL1       -0.0000
     25 C         138.2256  140.8254  164.5337 C.ar    1  UNL1       -0.0003
     26 C         138.8604  139.9187  168.6886 C.3     1  UNL1        0.0050
     27 C         139.9035  139.6411  167.6470 C.3     1  UNL1        0.0264
@<TRIPOS>UNITY_ATOM_ATTR
18 1
charge -1
@<TRIPOS>BOND
     1    26    27    1
     2    27     1    1
     3     1     2    2
     4     2     3    1
     5     3     4   ar
     6     4     5   ar
     7     5     6   ar
     8     6     7   ar
     9     7     8   ar
    10     2     9    1
    11     9    10   ar
    12    10    11   ar
    13    11    12   ar
    14    12    15    1
    15    15    16    2
    16    16    17    1
    17    17    18   ar
    18    17    19   ar
    19    12    13   ar
    20    13    14   ar
    21     1    20    1
    22    20    21   ar
    23    21    22   ar
    24    22    23   ar
    25    23    24   ar
    26    24    25   ar
    27     8     3   ar
    28    14     9   ar
    29    25    20   ar
@<TRIPOS>MOLECULE
*****
 27 29 0 0 0
SMALL
GASTEIGER

@<TRIPOS>ATOM
      1 C         139.6915  140.1269  166.0535 C.2     1  UNL1       -0.0222
      2 C         140.7155  141.2221  166.0972 C.2     1  UNL1       -0.0040
      3 C         141.1481  141.7922  167.4156 C.ar    1  UNL1       -0.0003
      4 C         142.3948  141.2862  168.0786 C.ar    1  UNL1       -0.0000
      5 C         142.8274  141.8563  169.3969 C.ar    1  UNL1       -0.0000
      6 C         142.0133  142.9324  170.0520 C.ar    1  UNL1       -0.0000
      7 C         140.7667  143.4385  169.3889 C.ar    1  UNL1       -0.0000
      8 C         140.3341  142.8684  168.0707 C.ar    1  UNL1       -0.0000
      9 C         141.3069  141.7473  164.8227 C.ar    1  UNL1       -0.0003
     10 C         140.7447  142.9852  164.1892 C.ar    1  UNL1       -0.0000
     11 C         141.3360  143.5104  162.9147 C.ar    1  UNL1        0.0000
     12 C         142.4896  142.7976  162.2736 C.ar    1  UNL1        0.0000
     13 C         143.0519  141.5595  162.9070 C.ar    1  UNL1        0.0000
     14 C         142.4605  141.0344  164.1816 C.ar    1  UNL1       -0.0000
     15 C         143.0810  143.3227  160.9990 C.2     1  UNL1        0.0012
     16 C         142.2522  143.3657  159.7495 C.2     1  UNL1        0.0151
     17 C         142.8436  143.8908  158.4749 C.2     1  UNL1        0.0729
     18 O         143.7482  143.0207  157.6535 O.co2   1  UNL1       -0.5446
     19 O         142.5304  145.2860  158.0218 O.co2   1  UNL1       -0.5446
     20 C         139.2588  139.5568  164.7352 C.ar    1  UNL1       -0.0040
     21 C         139.8418  138.2627  164.2501 C.ar    1  UNL1       -0.0003
     22 C         139.4091  137.6927  162.9319 C.ar    1  UNL1       -0.0000
     23 C         138.3935  138.4168  162.0987 C.ar    1  UNL1       -0.0000
     24 C         137.8105  139.7109  162.5838 C.ar    1  UNL1       -0.0000
     25 C         138.2432  140.2809  163.9021 C.ar    1  UNL1       -0.0003
     26 C         137.8319  138.8014  167.2926 C.3     1  UNL1        0.0050
     27 C         139.1001  139.6018  167.3281 C.3     1  UNL1        0.0264
@<TRIPOS>UNITY_ATOM_ATTR
18 1
charge -1
@<TRIPOS>BOND
     1    26    27    1
     2    27     1    1
     3     1     2    2
     4     2     3    1
     5     3     4   ar
     6     4     5   ar
     7     5     6   ar
     8     6     7   ar
     9     7     8   ar
    10     2     9    1
    11     9    10   ar
    12    10    11   ar
    13    11    12   ar
    14    12    15    1
    15    15    16    2
    16    16    17    1
    17    17    18   ar
    18    17    19   ar
    19    12    13   ar
    20    13    14   ar
    21     1    20    1
    22    20    21   ar
    23    21    22   ar
    24    22    23   ar
    25    23    24   ar
    26    24    25   ar
    27     8     3   ar
    28    14     9   ar
    29    25    20   ar
@<TRIPOS>MOLECULE
*****
 27 29 0 0 0
SMALL
GASTEIGER

@<TRIPOS>ATOM
      1 C         142.6471  140.0587  165.9538 C.2     1  UNL1       -0.0222
      2 C         142.2265  141.4828  166.1657 C.2     1  UNL1       -0.0040
      3 C         142.0826  142.0232  167.5576 C.ar    1  UNL1       -0.0003
      4 C         143.2869  142.1439  168.4435 C.ar    1  UNL1       -0.0000
      5 C         143.1430  142.6842  169.8354 C.ar    1  UNL1       -0.0000
      6 C         141.7947  143.1039  170.3413 C.ar    1  UNL1       -0.0000
      7 C         140.5903  142.9832  169.4554 C.ar    1  UNL1       -0.0000
      8 C         140.7343  142.4429  168.0635 C.ar    1  UNL1       -0.0000
      9 C         141.9498  142.3666  164.9857 C.ar    1  UNL1       -0.0003
     10 C         142.9896  143.3415  164.5187 C.ar    1  UNL1       -0.0000
     11 C         142.7130  144.2254  163.3388 C.ar    1  UNL1        0.0000
     12 C         141.3964  144.1342  162.6258 C.ar    1  UNL1        0.0000
     13 C         140.3565  143.1592  163.0928 C.ar    1  UNL1        0.0000
     14 C         140.6332  142.2754  164.2728 C.ar    1  UNL1       -0.0000
     15 C         141.1197  145.0180  161.4458 C.2     1  UNL1        0.0012
     16 C         141.5210  144.5783  160.0690 C.2     1  UNL1        0.0151
     17 C         141.2443  145.4621  158.8890 C.2     1  UNL1        0.0729
     18 O         142.3776  145.9537  158.0381 O.co2   1  UNL1       -0.5446
     19 O         139.8344  145.8543  158.5599 O.co2   1  UNL1       -0.5446
     20 C         142.7910  139.5183  164.5619 C.ar    1  UNL1       -0.0040
     21 C         144.0233  139.8228  163.7628 C.ar    1  UNL1       -0.0003
     22 C         144.1672  139.2824  162.3710 C.ar    1  UNL1       -0.0000
     23 C         143.0787  138.4375  161.7782 C.ar    1  UNL1       -0.0000
     24 C         141.8464  138.1330  162.5773 C.ar    1  UNL1       -0.0000
     25 C         141.7025  138.6734  163.9691 C.ar    1  UNL1       -0.0003
     26 C         143.7625  137.9424  166.9674 C.3     1  UNL1        0.0050
     27 C         142.9237  139.1749  167.1338 C.3     1  UNL1        0.0264
@<TRIPOS>UNITY_ATOM_ATTR
18 1
charge -1
@<TRIPOS>BOND
     1    26    27    1
     2    27     1    1
     3     1     2    2
     4     2     3    1
     5     3     4   ar
     6     4     5   ar
     7     5     6   ar
     8     6     7   ar
     9     7     8   ar
    10     2     9    1
    11     9    10   ar
    12    10    11   ar
    13    11    12   ar
    14    12    15    1
    15    15    16    2
    16    16    17    1
    17    17    18   ar
    18    17    19   ar
    19    12    13   ar
    20    13    14   ar
    21     1    20    1
    22    20    21   ar
    23    21    22   ar
    24    22    23   ar
    25    23    24   ar
    26    24    25   ar
    27     8     3   ar
    28    14     9   ar
    29    25    20   ar
@<TRIPOS>MOLECULE
*****
 27 29 0 0 0
SMALL
GASTEIGER

@<TRIPOS>ATOM
      1 C         142.3071  140.0311  165.8494 C.2     1  UNL1       -0.0222
      2 C         140.9547  140.1185  165.2065 C.2     1  UNL1       -0.0040
      3 C         139.8154  139.3031  165.7423 C.ar    1  UNL1       -0.0003
      4 C         139.0232  139.8008  166.9147 C.ar    1  UNL1       -0.0000
      5 C         137.8839  138.9854  167.4505 C.ar    1  UNL1       -0.0000
      6 C         137.5368  137.6723  166.8138 C.ar    1  UNL1       -0.0000
      7 C         138.3290  137.1747  165.6413 C.ar    1  UNL1       -0.0000
      8 C         139.4683  137.9901  165.1056 C.ar    1  UNL1       -0.0000
      9 C         140.7417  141.0213  164.0277 C.ar    1  UNL1       -0.0003
     10 C         141.0151  140.5206  162.6404 C.ar    1  UNL1       -0.0000
     11 C         140.8020  141.4234  161.4616 C.ar    1  UNL1        0.0000
     12 C         140.3155  142.8269  161.6701 C.ar    1  UNL1        0.0000
     13 C         140.0421  143.3277  163.0574 C.ar    1  UNL1        0.0000
     14 C         140.2552  142.4249  164.2362 C.ar    1  UNL1       -0.0000
     15 C         140.1025  143.7297  160.4913 C.2     1  UNL1        0.0012
     16 C         141.2312  144.5755  159.9806 C.2     1  UNL1        0.0151
     17 C         141.0181  145.4783  158.8018 C.2     1  UNL1        0.0729
     18 O         139.6267  145.8583  158.3900 O.co2   1  UNL1       -0.5446
     19 O         142.1964  146.0011  158.0349 O.co2   1  UNL1       -0.5446
     20 C         143.4465  140.8465  165.3136 C.ar    1  UNL1       -0.0040
     21 C         144.4314  140.2277  164.3666 C.ar    1  UNL1       -0.0003
     22 C         145.5707  141.0431  163.8309 C.ar    1  UNL1       -0.0000
     23 C         145.7250  142.4774  164.2421 C.ar    1  UNL1       -0.0000
     24 C         144.7401  143.0962  165.1891 C.ar    1  UNL1       -0.0000
     25 C         143.6008  142.2808  165.7249 C.ar    1  UNL1       -0.0003
     26 C         142.5818  139.7038  168.4122 C.3     1  UNL1        0.0050
     27 C         142.5202  139.1283  167.0282 C.3     1  UNL1        0.0264
@<TRIPOS>UNITY_ATOM_ATTR
18 1
charge -1
@<TRIPOS>BOND
     1    26    27    1
     2    27     1    1
     3     1     2    2
     4     2     3    1
     5     3     4   ar
     6     4     5   ar
     7     5     6   ar
     8     6     7   ar
     9     7     8   ar
    10     2     9    1
    11     9    10   ar
    12    10    11   ar
    13    11    12   ar
    14    12    15    1
    15    15    16    2
    16    16    17    1
    17    17    18   ar
    18    17    19   ar
    19    12    13   ar
    20    13    14   ar
    21     1    20    1
    22    20    21   ar
    23    21    22   ar
    24    22    23   ar
    25    23    24   ar
    26    24    25   ar
    27     8     3   ar
    28    14     9   ar
    29    25    20   ar
@<TRIPOS>MOLECULE
*****
 27 29 0 0 0
SMALL
GASTEIGER

@<TRIPOS>ATOM
      1 C         142.3037  140.0040  165.8106 C.2     1  UNL1       -0.0222
      2 C         140.9539  140.0823  165.1610 C.2     1  UNL1       -0.0040
      3 C         139.8114  139.2777  165.7063 C.ar    1  UNL1       -0.0003
      4 C         139.4574  137.9599  165.0834 C.ar    1  UNL1       -0.0000
      5 C         138.3149  137.1554  165.6286 C.ar    1  UNL1       -0.0000
      6 C         137.5263  137.6686  166.7968 C.ar    1  UNL1       -0.0000
      7 C         137.8802  138.9864  167.4197 C.ar    1  UNL1       -0.0000
      8 C         139.0228  139.7910  166.8745 C.ar    1  UNL1       -0.0000
      9 C         140.7467  140.9650  163.9661 C.ar    1  UNL1       -0.0003
     10 C         141.0488  140.4486  162.5907 C.ar    1  UNL1       -0.0000
     11 C         140.8415  141.3314  161.3958 C.ar    1  UNL1        0.0000
     12 C         140.3322  142.7306  161.5764 C.ar    1  UNL1        0.0000
     13 C         140.0301  143.2471  162.9519 C.ar    1  UNL1        0.0000
     14 C         140.2373  142.3643  164.1468 C.ar    1  UNL1       -0.0000
     15 C         140.1249  143.6134  160.3815 C.2     1  UNL1        0.0012
     16 C         141.1989  144.5733  159.9629 C.2     1  UNL1        0.0151
     17 C         140.9917  145.4561  158.7680 C.2     1  UNL1        0.0729
     18 O         139.6017  145.7697  158.2993 O.co2   1  UNL1       -0.5446
     19 O         142.1743  146.0253  158.0419 O.co2   1  UNL1       -0.5446
     20 C         143.4462  140.8086  165.2654 C.ar    1  UNL1       -0.0040
     21 C         143.5983  142.2508  165.6487 C.ar    1  UNL1       -0.0003
     22 C         144.7408  143.0553  165.1034 C.ar    1  UNL1       -0.0000
     23 C         145.7313  142.4176  164.1749 C.ar    1  UNL1       -0.0000
     24 C         145.5793  140.9755  163.7915 C.ar    1  UNL1       -0.0000
     25 C         144.4368  140.1710  164.3368 C.ar    1  UNL1       -0.0003
     26 C         142.6202  139.7252  168.3743 C.3     1  UNL1        0.0050
     27 C         142.5109  139.1212  167.0055 C.3     1  UNL1        0.0264
@<TRIPOS>UNITY_ATOM_ATTR
18 1
charge -1
@<TRIPOS>BOND
     1    26    27    1
     2    27     1    1
     3     1     2    2
     4     2     3    1
     5     3     4   ar
     6     4     5   ar
     7     5     6   ar
     8     6     7   ar
     9     7     8   ar
    10     2     9    1
    11     9    10   ar
    12    10    11   ar
    13    11    12   ar
    14    12    15    1
    15    15    16    2
    16    16    17    1
    17    17    18   ar
    18    17    19   ar
    19    12    13   ar
    20    13    14   ar
    21     1    20    1
    22    20    21   ar
    23    21    22   ar
    24    22    23   ar
    25    23    24   ar
    26    24    25   ar
    27     8     3   ar
    28    14     9   ar
    29    25    20   ar
@<TRIPOS>MOLECULE
*****
 27 29 0 0 0
SMALL
GASTEIGER

@<TRIPOS>ATOM
      1 C         139.5755  140.7624  162.4224 C.2     1  UNL1       -0.0222
      2 C         140.4251  141.9432  162.7881 C.2     1  UNL1       -0.0040
      3 C         140.7012  143.0119  161.7722 C.ar    1  UNL1       -0.0003
      4 C         139.8872  144.2718  161.7689 C.ar    1  UNL1       -0.0000
      5 C         140.1633  145.3404  160.7531 C.ar    1  UNL1       -0.0000
      6 C         141.2534  145.1490  159.7406 C.ar    1  UNL1       -0.0000
      7 C         142.0673  143.8891  159.7439 C.ar    1  UNL1       -0.0000
      8 C         141.7912  142.8205  160.7597 C.ar    1  UNL1       -0.0000
      9 C         140.9986  142.0556  164.1695 C.ar    1  UNL1       -0.0003
     10 C         142.3370  141.4524  164.4773 C.ar    1  UNL1       -0.0000
     11 C         142.9106  141.5648  165.8587 C.ar    1  UNL1        0.0000
     12 C         142.1456  142.2802  166.9325 C.ar    1  UNL1        0.0000
     13 C         140.8071  142.8834  166.6248 C.ar    1  UNL1        0.0000
     14 C         140.2336  142.7711  165.2433 C.ar    1  UNL1       -0.0000
     15 C         142.7191  142.3925  168.3139 C.2     1  UNL1        0.0012
     16 C         141.8658  142.8922  169.4419 C.2     1  UNL1        0.0151
     17 C         142.4393  143.0045  170.8234 C.2     1  UNL1        0.0729
     18 O         141.8963  142.1528  171.9324 O.co2   1  UNL1       -0.5446
     19 O         143.5558  143.9684  171.0959 O.co2   1  UNL1       -0.5446
     20 C         139.2994  139.6937  163.4383 C.ar    1  UNL1       -0.0040
     21 C         138.3356  139.9541  164.5577 C.ar    1  UNL1       -0.0003
     22 C         138.0595  138.8855  165.5734 C.ar    1  UNL1       -0.0000
     23 C         138.7474  137.5565  165.4698 C.ar    1  UNL1       -0.0000
     24 C         139.7113  137.2962  164.3504 C.ar    1  UNL1       -0.0000
     25 C         139.9873  138.3648  163.3346 C.ar    1  UNL1       -0.0003
     26 C         137.6936  139.9483  160.8268 C.3     1  UNL1        0.0050
     27 C         139.0020  140.6501  161.0409 C.3     1  UNL1        0.0264
@<TRIPOS>UNITY_ATOM_ATTR
18 1
charge -1
@<TRIPOS>BOND
     1    26    27    1
     2    27     1    1
     3     1     2    2
     4     2     3    1
     5     3     4   ar
     6     4     5   ar
     7     5     6   ar
     8     6     7   ar
     9     7     8   ar
    10     2     9    1
    11     9    10   ar
    12    10    11   ar
    13    11    12   ar
    14    12    15    1
    15    15    16    2
    16    16    17    1
    17    17    18   ar
    18    17    19   ar
    19    12    13   ar
    20    13    14   ar
    21     1    20    1
    22    20    21   ar
    23    21    22   ar
    24    22    23   ar
    25    23    24   ar
    26    24    25   ar
    27     8     3   ar
    28    14     9   ar
    29    25    20   ar
@<TRIPOS>MOLECULE
*****
 27 29 0 0 0
SMALL
GASTEIGER

@<TRIPOS>ATOM
      1 C         142.1011  140.1666  162.0748 C.2     1  UNL1       -0.0222
      2 C         140.8007  140.2951  162.8111 C.2     1  UNL1       -0.0040
      3 C         139.5290  139.8145  162.1770 C.ar    1  UNL1       -0.0003
      4 C         139.0193  138.4348  162.4708 C.ar    1  UNL1       -0.0000
      5 C         137.7477  137.9542  161.8367 C.ar    1  UNL1       -0.0000
      6 C         136.9858  138.8535  160.9089 C.ar    1  UNL1       -0.0000
      7 C         137.4956  140.2333  160.6151 C.ar    1  UNL1       -0.0000
      8 C         138.7672  140.7138  161.2492 C.ar    1  UNL1       -0.0000
      9 C         140.7718  140.9042  164.1816 C.ar    1  UNL1       -0.0003
     10 C         140.6539  142.3912  164.3391 C.ar    1  UNL1       -0.0000
     11 C         140.6250  143.0003  165.7095 C.ar    1  UNL1        0.0000
     12 C         140.7140  142.1224  166.9225 C.ar    1  UNL1        0.0000
     13 C         140.8319  140.6353  166.7650 C.ar    1  UNL1        0.0000
     14 C         140.8608  140.0262  165.3946 C.ar    1  UNL1       -0.0000
     15 C         140.6851  142.7315  168.2930 C.2     1  UNL1        0.0012
     16 C         140.2375  141.9135  169.4680 C.2     1  UNL1        0.0151
     17 C         140.2086  142.5226  170.8384 C.2     1  UNL1        0.0729
     18 O         139.0725  143.4170  171.2379 O.co2   1  UNL1       -0.5446
     19 O         141.3158  142.2374  171.8094 O.co2   1  UNL1       -0.5446
     20 C         143.3728  140.6472  162.7089 C.ar    1  UNL1       -0.0040
     21 C         143.8576  142.0433  162.4526 C.ar    1  UNL1       -0.0003
     22 C         145.1292  142.5238  163.0867 C.ar    1  UNL1       -0.0000
     23 C         145.9160  141.6082  163.9770 C.ar    1  UNL1       -0.0000
     24 C         145.4311  140.2121  164.2333 C.ar    1  UNL1       -0.0000
     25 C         144.1595  139.7316  163.5992 C.ar    1  UNL1       -0.0003
     26 C         142.4990  138.1137  160.5329 C.3     1  UNL1        0.0050
     27 C         142.1300  139.5575  160.7043 C.3     1  UNL1        0.0264
@<TRIPOS>UNITY_ATOM_ATTR
18 1
charge -1
@<TRIPOS>BOND
     1    26    27    1
     2    27     1    1
     3     1     2    2
     4     2     3    1
     5     3     4   ar
     6     4     5   ar
     7     5     6   ar
     8     6     7   ar
     9     7     8   ar
    10     2     9    1
    11     9    10   ar
    12    10    11   ar
    13    11    12   ar
    14    12    15    1
    15    15    16    2
    16    16    17    1
    17    17    18   ar
    18    17    19   ar
    19    12    13   ar
    20    13    14   ar
    21     1    20    1
    22    20    21   ar
    23    21    22   ar
    24    22    23   ar
    25    23    24   ar
    26    24    25   ar
    27     8     3   ar
    28    14     9   ar
    29    25    20   ar
@<TRIPOS>MOLECULE
*****
 27 29 0 0 0
SMALL
GASTEIGER

@<TRIPOS>ATOM
      1 C         140.1251  141.6278  162.2281 C.2     1  UNL1       -0.0222
      2 C         141.3222  140.9286  162.8009 C.2     1  UNL1       -0.0040
      3 C         142.0950  139.9549  161.9613 C.ar    1  UNL1       -0.0003
      4 C         141.7903  138.4884  162.0416 C.ar    1  UNL1       -0.0000
      5 C         142.5631  137.5148  161.2021 C.ar    1  UNL1       -0.0000
      6 C         143.6406  138.0077  160.2823 C.ar    1  UNL1       -0.0000
      7 C         143.9453  139.4742  160.2020 C.ar    1  UNL1       -0.0000
      8 C         143.1725  140.4478  161.0415 C.ar    1  UNL1       -0.0000
      9 C         141.7465  141.2030  164.2132 C.ar    1  UNL1       -0.0003
     10 C         141.0596  140.5079  165.3511 C.ar    1  UNL1       -0.0000
     11 C         141.4839  140.7823  166.7635 C.ar    1  UNL1        0.0000
     12 C         142.5951  141.7518  167.0378 C.ar    1  UNL1        0.0000
     13 C         143.2820  142.4470  165.8998 C.ar    1  UNL1        0.0000
     14 C         142.8577  142.1726  164.4875 C.ar    1  UNL1       -0.0000
     15 C         143.0194  142.0262  168.4502 C.2     1  UNL1        0.0012
     16 C         142.0853  142.7280  169.3910 C.2     1  UNL1        0.0151
     17 C         142.5096  143.0024  170.8033 C.2     1  UNL1        0.0729
     18 O         143.6018  143.9929  171.0793 O.co2   1  UNL1       -0.5446
     19 O         141.8417  142.2865  171.9396 O.co2   1  UNL1       -0.5446
     20 C         139.3523  142.6015  163.0676 C.ar    1  UNL1       -0.0040
     21 C         138.0563  142.1850  163.6976 C.ar    1  UNL1       -0.0003
     22 C         137.2836  143.1587  164.5371 C.ar    1  UNL1       -0.0000
     23 C         137.8068  144.5488  164.7466 C.ar    1  UNL1       -0.0000
     24 C         139.1028  144.9652  164.1166 C.ar    1  UNL1       -0.0000
     25 C         139.8755  143.9915  163.2771 C.ar    1  UNL1       -0.0003
     26 C         139.1085  142.4520  159.9837 C.3     1  UNL1        0.0050
     27 C         139.7008  141.3534  160.8157 C.3     1  UNL1        0.0264
@<TRIPOS>UNITY_ATOM_ATTR
18 1
charge -1
@<TRIPOS>BOND
     1    26    27    1
     2    27     1    1
     3     1     2    2
     4     2     3    1
     5     3     4   ar
     6     4     5   ar
     7     5     6   ar
     8     6     7   ar
     9     7     8   ar
    10     2     9    1
    11     9    10   ar
    12    10    11   ar
    13    11    12   ar
    14    12    15    1
    15    15    16    2
    16    16    17    1
    17    17    18   ar
    18    17    19   ar
    19    12    13   ar
    20    13    14   ar
    21     1    20    1
    22    20    21   ar
    23    21    22   ar
    24    22    23   ar
    25    23    24   ar
    26    24    25   ar
    27     8     3   ar
    28    14     9   ar
    29    25    20   ar
@<TRIPOS>MOLECULE
*****
 27 29 0 0 0
SMALL
GASTEIGER

@<TRIPOS>ATOM
      1 C         141.3286  141.5155  165.1540 C.2     1  UNL1       -0.0222
      2 C         140.2150  140.8420  164.4082 C.2     1  UNL1       -0.0040
      3 C         139.4810  139.6928  165.0333 C.ar    1  UNL1       -0.0003
      4 C         138.5188  139.9399  166.1572 C.ar    1  UNL1       -0.0000
      5 C         137.7849  138.7908  166.7823 C.ar    1  UNL1       -0.0000
      6 C         138.0131  137.3946  166.2836 C.ar    1  UNL1       -0.0000
      7 C         138.9753  137.1476  165.1597 C.ar    1  UNL1       -0.0000
      8 C         139.7093  138.2967  164.5346 C.ar    1  UNL1       -0.0000
      9 C         139.8354  141.3176  163.0371 C.ar    1  UNL1       -0.0003
     10 C         138.6545  142.2249  162.8583 C.ar    1  UNL1       -0.0000
     11 C         138.2749  142.7005  161.4873 C.ar    1  UNL1        0.0000
     12 C         139.0762  142.2687  160.2951 C.ar    1  UNL1        0.0000
     13 C         140.2572  141.3613  160.4739 C.ar    1  UNL1        0.0000
     14 C         140.6368  140.8857  161.8449 C.ar    1  UNL1       -0.0000
     15 C         138.6965  142.7443  158.9241 C.2     1  UNL1        0.0012
     16 C         139.6606  143.5675  158.1221 C.2     1  UNL1        0.0151
     17 C         139.2810  144.0431  156.7511 C.2     1  UNL1        0.0729
     18 O         139.5108  145.4738  156.3632 O.co2   1  UNL1       -0.5446
     19 O         138.6715  143.0881  155.7680 O.co2   1  UNL1       -0.5446
     20 C         142.0626  142.6646  164.5288 C.ar    1  UNL1       -0.0040
     21 C         141.4246  144.0210  164.4734 C.ar    1  UNL1       -0.0003
     22 C         142.1586  145.1701  163.8483 C.ar    1  UNL1       -0.0000
     23 C         143.5306  144.9627  163.2785 C.ar    1  UNL1       -0.0000
     24 C         144.1686  143.6063  163.3339 C.ar    1  UNL1       -0.0000
     25 C         143.4346  142.4573  163.9591 C.ar    1  UNL1       -0.0003
     26 C         142.6972  139.9233  166.6844 C.3     1  UNL1        0.0050
     27 C         141.7082  141.0399  166.5250 C.3     1  UNL1        0.0264
@<TRIPOS>UNITY_ATOM_ATTR
18 1
charge -1
@<TRIPOS>BOND
     1    26    27    1
     2    27     1    1
     3     1     2    2
     4     2     3    1
     5     3     4   ar
     6     4     5   ar
     7     5     6   ar
     8     6     7   ar
     9     7     8   ar
    10     2     9    1
    11     9    10   ar
    12    10    11   ar
    13    11    12   ar
    14    12    15    1
    15    15    16    2
    16    16    17    1
    17    17    18   ar
    18    17    19   ar
    19    12    13   ar
    20    13    14   ar
    21     1    20    1
    22    20    21   ar
    23    21    22   ar
    24    22    23   ar
    25    23    24   ar
    26    24    25   ar
    27     8     3   ar
    28    14     9   ar
    29    25    20   ar
