@<TRIPOS>MOLECULE
*****
 36 39 0 0 0
SMALL
GASTEIGER

@<TRIPOS>ATOM
      1 C         143.0069  138.4849  164.6178 C.ar    1  UNL1        0.1377
      2 C         144.0880  138.9423  163.6839 C.ar    1  UNL1        0.1397
      3 N         143.8942  138.8317  162.2006 N.ar    1  UNL1       -0.2027
      4 C         142.6192  138.2639  161.6511 C.ar    1  UNL1        0.2367
      5 N         141.5380  137.8066  162.5849 N.ar    1  UNL1       -0.1828
      6 C         141.7319  137.9171  164.0683 C.ar    1  UNL1        0.2339
      7 C         142.5130  139.6133  168.3904 C.3     1  UNL1        0.1109
      8 N         142.3192  139.5028  166.9071 N.am    1  UNL1       -0.2990
      9 C         143.2007  138.5955  166.1011 C.2     1  UNL1        0.2532
     10 O         144.2761  137.7987  166.7783 O.2     1  UNL1       -0.2699
     11 H         141.6133  140.0257  166.4626 H       1  UNL1        0.1498
     12 N         145.3630  139.5101  164.2334 N.pl3   1  UNL1       -0.3178
     13 H         145.9434  138.9556  164.8034 H       1  UNL1        0.1482
     14 C         145.7537  140.9227  163.9145 C.3     1  UNL1        0.0881
     15 C         144.6950  141.9556  163.6651 C.3     1  UNL1        0.0196
     16 C         144.4197  142.4250  162.2673 C.3     1  UNL1        0.0017
     17 C         143.3610  143.4579  162.0179 C.3     1  UNL1        0.0001
     18 C         142.5775  144.0214  163.1662 C.3     1  UNL1        0.0000
     19 C         142.0363  144.7134  161.9503 C.3     1  UNL1        0.0000
     20 C         141.0802  145.4822  162.8134 C.3     1  UNL1        0.0000
     21 C         141.6214  144.7901  164.0293 C.3     1  UNL1        0.0000
     22 C         142.8528  143.5519  164.5639 C.3     1  UNL1        0.0001
     23 C         143.9116  142.5190  164.8134 C.3     1  UNL1        0.0017
     24 C         142.4253  138.1534  160.1679 C.1     1  UNL1        0.1401
     25 N         142.2314  138.0429  158.6845 N.1     1  UNL1       -0.1876
     26 O         140.6507  137.4598  165.0020 O.3     1  UNL1       -0.4600
     27 C         139.2414  137.9354  164.8080 C.3     1  UNL1        0.2071
     28 C         138.9565  139.4021  164.6740 C.3     1  UNL1        0.0466
     29 C         139.4963  140.3666  165.6880 C.3     1  UNL1        0.0211
     30 C         139.2114  141.8332  165.5540 C.3     1  UNL1        0.0722
     31 N         138.3868  142.3352  164.4059 N.3     1  UNL1       -0.2740
     32 C         137.8470  141.3706  163.3920 C.3     1  UNL1        0.0722
     33 C         138.1319  139.9041  163.5260 C.3     1  UNL1        0.0211
     34 C         138.1019  143.8018  164.2719 C.3     1  UNL1        0.0576
     35 C         138.2610  144.7080  165.4566 C.3     1  UNL1        0.0173
     36 C         137.6579  144.3622  162.9533 C.3     1  UNL1        0.0173
@<TRIPOS>BOND
     1     7     8    1
     2     8     9   am
     3     9    10    2
     4     9     1    1
     5     1     2   ar
     6     2    12    1
     7    12    14    1
     8    14    15    1
     9    15    16    1
    10    16    17    1
    11    17    18    1
    12    18    19    1
    13    19    20    1
    14    20    21    1
    15    18    22    1
    16    22    23    1
    17     2     3   ar
    18     3     4   ar
    19     4    24    1
    20    24    25    3
    21     4     5   ar
    22     5     6   ar
    23     6    26    1
    24    26    27    1
    25    27    28    1
    26    28    29    1
    27    29    30    1
    28    30    31    1
    29    31    34    1
    30    34    35    1
    31    34    36    1
    32    31    32    1
    33    32    33    1
    34     6     1   ar
    35    33    28    1
    36    23    15    1
    37    21    18    1
    38     8    11    1
    39    12    13    1
@<TRIPOS>MOLECULE
*****
 36 39 0 0 0
SMALL
GASTEIGER

@<TRIPOS>ATOM
      1 C         144.4511  143.0249  164.0113 C.ar    1  UNL1        0.1377
      2 C         143.9543  144.1088  163.1010 C.ar    1  UNL1        0.1397
      3 N         144.0268  143.9306  161.6135 N.ar    1  UNL1       -0.2027
      4 C         144.5961  142.6686  161.0361 C.ar    1  UNL1        0.2367
      5 N         145.0929  141.5848  161.9463 N.ar    1  UNL1       -0.1828
      6 C         145.0204  141.7630  163.4340 C.ar    1  UNL1        0.2339
      7 C         143.4039  142.5048  167.8038 C.3     1  UNL1        0.1109
      8 N         143.4764  142.3266  166.3162 N.am    1  UNL1       -0.2990
      9 C         144.3786  143.2031  165.4989 C.2     1  UNL1        0.2532
     10 O         145.2083  144.2577  166.1693 O.2     1  UNL1       -0.2699
     11 H         142.9319  141.6344  165.8762 H       1  UNL1        0.1498
     12 N         143.3850  145.3707  163.6784 N.pl3   1  UNL1       -0.3178
     13 H         143.9618  145.9807  164.1927 H       1  UNL1        0.1482
     14 C         141.9370  145.7033  163.4722 C.3     1  UNL1        0.0881
     15 C         140.9085  144.6114  163.4774 C.3     1  UNL1        0.0196
     16 C         140.5959  143.8817  164.7501 C.3     1  UNL1        0.0017
     17 C         139.5674  142.7898  164.7553 C.3     1  UNL1        0.0001
     18 C         138.8516  142.4276  163.4879 C.3     1  UNL1        0.0000
     19 C         138.2889  141.5054  164.5286 C.3     1  UNL1        0.0000
     20 C         137.3971  140.8834  163.4953 C.3     1  UNL1        0.0000
     21 C         137.9598  141.8055  162.4545 C.3     1  UNL1        0.0000
     22 C         139.1643  143.1573  162.2152 C.3     1  UNL1        0.0001
     23 C         140.1928  144.2492  162.2100 C.3     1  UNL1        0.0017
     24 C         144.6686  142.4905  159.5485 C.1     1  UNL1        0.1401
     25 N         144.7411  142.3123  158.0608 N.1     1  UNL1       -0.1876
     26 O         145.5172  140.6792  164.3442 O.3     1  UNL1       -0.4600
     27 C         145.1048  139.2560  164.1107 C.3     1  UNL1        0.2071
     28 C         143.6506  138.8881  164.1033 C.3     1  UNL1        0.0466
     29 C         143.0208  138.3445  162.8552 C.3     1  UNL1        0.0211
     30 C         141.5667  137.9766  162.8479 C.3     1  UNL1        0.0722
     31 N         140.7423  138.1524  164.0888 N.3     1  UNL1       -0.2740
     32 C         141.3722  138.6960  165.3369 C.3     1  UNL1        0.0722
     33 C         142.8263  139.0638  165.3441 C.3     1  UNL1        0.0211
     34 C         139.2881  137.7844  164.0814 C.3     1  UNL1        0.0576
     35 C         138.5504  137.6684  162.7806 C.3     1  UNL1        0.0173
     36 C         138.5717  137.5326  165.3750 C.3     1  UNL1        0.0173
@<TRIPOS>BOND
     1     7     8    1
     2     8     9   am
     3     9    10    2
     4     9     1    1
     5     1     2   ar
     6     2    12    1
     7    12    14    1
     8    14    15    1
     9    15    16    1
    10    16    17    1
    11    17    18    1
    12    18    19    1
    13    19    20    1
    14    20    21    1
    15    18    22    1
    16    22    23    1
    17     2     3   ar
    18     3     4   ar
    19     4    24    1
    20    24    25    3
    21     4     5   ar
    22     5     6   ar
    23     6    26    1
    24    26    27    1
    25    27    28    1
    26    28    29    1
    27    29    30    1
    28    30    31    1
    29    31    34    1
    30    34    35    1
    31    34    36    1
    32    31    32    1
    33    32    33    1
    34     6     1   ar
    35    33    28    1
    36    23    15    1
    37    21    18    1
    38     8    11    1
    39    12    13    1
@<TRIPOS>MOLECULE
*****
 36 39 0 0 0
SMALL
GASTEIGER

@<TRIPOS>ATOM
      1 C         143.1182  138.6583  162.8988 C.ar    1  UNL1        0.1377
      2 C         144.1369  139.4784  163.6336 C.ar    1  UNL1        0.1397
      3 N         144.0816  139.5787  165.1292 N.ar    1  UNL1       -0.2027
      4 C         143.0078  138.8591  165.8900 C.ar    1  UNL1        0.2367
      5 N         141.9891  138.0391  165.1553 N.ar    1  UNL1       -0.1828
      6 C         142.0443  137.9387  163.6596 C.ar    1  UNL1        0.2339
      7 C         142.9109  137.1571  159.2309 C.3     1  UNL1        0.1109
      8 N         142.8557  137.2574  160.7265 N.am    1  UNL1       -0.2990
      9 C         143.1734  138.5579  161.4032 C.2     1  UNL1        0.2532
     10 O         143.5464  139.7580  160.5842 O.2     1  UNL1       -0.2699
     11 H         142.6109  136.4698  161.2640 H       1  UNL1        0.1498
     12 N         145.2108  140.1980  162.8728 N.pl3   1  UNL1       -0.3178
     13 H         145.7689  139.7080  162.2266 H       1  UNL1        0.1482
     14 C         145.4342  141.6643  163.0964 C.3     1  UNL1        0.0881
     15 C         144.3071  142.6337  162.8968 C.3     1  UNL1        0.0196
     16 C         143.8354  143.4814  164.0409 C.3     1  UNL1        0.0017
     17 C         142.7083  144.4508  163.8413 C.3     1  UNL1        0.0001
     18 C         142.0529  144.5726  162.4976 C.3     1  UNL1        0.0000
     19 C         141.3309  145.5545  163.3721 C.3     1  UNL1        0.0000
     20 C         140.4589  145.9437  162.2153 C.3     1  UNL1        0.0000
     21 C         141.1809  144.9618  161.3407 C.3     1  UNL1        0.0000
     22 C         142.5246  143.7250  161.3535 C.3     1  UNL1        0.0001
     23 C         143.6517  142.7556  161.5531 C.3     1  UNL1        0.0017
     24 C         142.9525  138.9595  167.3856 C.1     1  UNL1        0.1401
     25 N         142.8972  139.0598  168.8813 N.1     1  UNL1       -0.1876
     26 O         141.0257  137.1186  162.9249 O.3     1  UNL1       -0.4600
     27 C         139.7198  137.7340  162.5174 C.3     1  UNL1        0.2071
     28 C         139.3978  139.1435  162.9170 C.3     1  UNL1        0.0466
     29 C         139.8674  140.2891  162.0702 C.3     1  UNL1        0.0211
     30 C         139.5453  141.6985  162.4699 C.3     1  UNL1        0.0722
     31 N         138.7538  141.9623  163.7164 N.3     1  UNL1       -0.2740
     32 C         138.2842  140.8168  164.5632 C.3     1  UNL1        0.0722
     33 C         138.6063  139.4074  164.1635 C.3     1  UNL1        0.0211
     34 C         138.4318  143.3719  164.1160 C.3     1  UNL1        0.0576
     35 C         138.9779  143.9319  165.3958 C.3     1  UNL1        0.0173
     36 C         137.5636  144.2212  163.2358 C.3     1  UNL1        0.0173
@<TRIPOS>BOND
     1     7     8    1
     2     8     9   am
     3     9    10    2
     4     9     1    1
     5     1     2   ar
     6     2    12    1
     7    12    14    1
     8    14    15    1
     9    15    16    1
    10    16    17    1
    11    17    18    1
    12    18    19    1
    13    19    20    1
    14    20    21    1
    15    18    22    1
    16    22    23    1
    17     2     3   ar
    18     3     4   ar
    19     4    24    1
    20    24    25    3
    21     4     5   ar
    22     5     6   ar
    23     6    26    1
    24    26    27    1
    25    27    28    1
    26    28    29    1
    27    29    30    1
    28    30    31    1
    29    31    34    1
    30    34    35    1
    31    34    36    1
    32    31    32    1
    33    32    33    1
    34     6     1   ar
    35    33    28    1
    36    23    15    1
    37    21    18    1
    38     8    11    1
    39    12    13    1
@<TRIPOS>MOLECULE
*****
 36 39 0 0 0
SMALL
GASTEIGER

@<TRIPOS>ATOM
      1 C         140.7794  144.2089  161.8387 C.ar    1  UNL1        0.1377
      2 C         140.3720  143.5011  160.5805 C.ar    1  UNL1        0.1397
      3 N         141.4178  143.0103  159.6239 N.ar    1  UNL1       -0.2027
      4 C         142.8711  143.2271  159.9254 C.ar    1  UNL1        0.2367
      5 N         143.2785  143.9348  161.1836 N.ar    1  UNL1       -0.1828
      6 C         142.2326  144.4258  162.1403 C.ar    1  UNL1        0.2339
      7 C         138.8211  144.9080  165.2191 C.3     1  UNL1        0.1109
      8 N         139.8670  144.4171  164.2625 N.am    1  UNL1       -0.2990
      9 C         139.7335  144.6998  162.7954 C.2     1  UNL1        0.2532
     10 O         138.5541  145.4735  162.2850 O.2     1  UNL1       -0.2699
     11 H         140.6411  143.9093  164.5975 H       1  UNL1        0.1498
     12 N         138.9187  143.2843  160.2789 N.pl3   1  UNL1       -0.3178
     13 H         138.3382  144.0529  160.0752 H       1  UNL1        0.1482
     14 C         138.3498  141.8964  160.2877 C.3     1  UNL1        0.0881
     15 C         138.3781  141.0822  161.5472 C.3     1  UNL1        0.0196
     16 C         137.9954  141.7097  162.8547 C.3     1  UNL1        0.0017
     17 C         138.0237  140.8955  164.1142 C.3     1  UNL1        0.0001
     18 C         138.4348  139.4538  164.0661 C.3     1  UNL1        0.0000
     19 C         138.1307  139.7228  165.5102 C.3     1  UNL1        0.0000
     20 C         138.4748  138.3023  165.8473 C.3     1  UNL1        0.0000
     21 C         138.7789  138.0332  164.4033 C.3     1  UNL1        0.0000
     22 C         138.8175  138.8262  162.7586 C.3     1  UNL1        0.0001
     23 C         138.7892  139.6405  161.4991 C.3     1  UNL1        0.0017
     24 C         143.9170  142.7362  158.9688 C.1     1  UNL1        0.1401
     25 N         144.9629  142.2452  158.0122 N.1     1  UNL1       -0.1876
     26 O         142.6401  145.1335  163.3985 O.3     1  UNL1       -0.4600
     27 C         143.6016  144.4821  164.3477 C.3     1  UNL1        0.2071
     28 C         143.4810  143.0178  164.6501 C.3     1  UNL1        0.0466
     29 C         144.4694  142.0487  164.0723 C.3     1  UNL1        0.0211
     30 C         144.3487  140.5845  164.3747 C.3     1  UNL1        0.0722
     31 N         143.2397  140.0894  165.2549 N.3     1  UNL1       -0.2740
     32 C         142.2513  141.0584  165.8328 C.3     1  UNL1        0.0722
     33 C         142.3720  142.5226  165.5304 C.3     1  UNL1        0.0211
     34 C         143.1191  138.6251  165.5573 C.3     1  UNL1        0.0576
     35 C         142.1511  137.7773  164.7865 C.3     1  UNL1        0.0173
     36 C         143.9664  138.0086  166.6306 C.3     1  UNL1        0.0173
@<TRIPOS>BOND
     1     7     8    1
     2     8     9   am
     3     9    10    2
     4     9     1    1
     5     1     2   ar
     6     2    12    1
     7    12    14    1
     8    14    15    1
     9    15    16    1
    10    16    17    1
    11    17    18    1
    12    18    19    1
    13    19    20    1
    14    20    21    1
    15    18    22    1
    16    22    23    1
    17     2     3   ar
    18     3     4   ar
    19     4    24    1
    20    24    25    3
    21     4     5   ar
    22     5     6   ar
    23     6    26    1
    24    26    27    1
    25    27    28    1
    26    28    29    1
    27    29    30    1
    28    30    31    1
    29    31    34    1
    30    34    35    1
    31    34    36    1
    32    31    32    1
    33    32    33    1
    34     6     1   ar
    35    33    28    1
    36    23    15    1
    37    21    18    1
    38     8    11    1
    39    12    13    1
@<TRIPOS>MOLECULE
*****
 36 39 0 0 0
SMALL
GASTEIGER

@<TRIPOS>ATOM
      1 C         141.9015  144.4994  162.4500 C.ar    1  UNL1        0.1377
      2 C         140.5268  145.0914  162.3510 C.ar    1  UNL1        0.1397
      3 N         139.9801  145.4989  161.0149 N.ar    1  UNL1       -0.2027
      4 C         140.8082  145.3145  159.7778 C.ar    1  UNL1        0.2367
      5 N         142.1829  144.7226  159.8768 N.ar    1  UNL1       -0.1828
      6 C         142.7296  144.3150  161.2129 C.ar    1  UNL1        0.2339
      7 C         144.4570  143.8464  165.4153 C.3     1  UNL1        0.1109
      8 N         143.9103  144.2540  164.0793 N.am    1  UNL1       -0.2990
      9 C         142.4482  144.0919  163.7860 C.2     1  UNL1        0.2532
     10 O         141.5327  143.5223  164.8289 O.2     1  UNL1       -0.2699
     11 H         144.5112  144.6278  163.3948 H       1  UNL1        0.1498
     12 N         139.6987  145.2758  163.5880 N.pl3   1  UNL1       -0.3178
     13 H         140.0016  145.8889  164.2962 H       1  UNL1        0.1482
     14 C         138.4093  144.5259  163.7461 C.3     1  UNL1        0.0881
     15 C         138.3357  143.0741  163.3761 C.3     1  UNL1        0.0196
     16 C         137.9594  142.6740  161.9804 C.3     1  UNL1        0.0017
     17 C         137.8858  141.2222  161.6103 C.3     1  UNL1        0.0001
     18 C         138.1886  140.1705  162.6361 C.3     1  UNL1        0.0000
     19 C         137.8593  139.4099  161.3858 C.3     1  UNL1        0.0000
     20 C         138.0846  138.1173  162.1128 C.3     1  UNL1        0.0000
     21 C         138.4139  138.8779  163.3631 C.3     1  UNL1        0.0000
     22 C         138.5650  140.5706  164.0319 C.3     1  UNL1        0.0001
     23 C         138.6386  142.0224  164.4019 C.3     1  UNL1        0.0017
     24 C         140.2615  145.7220  158.4418 C.1     1  UNL1        0.1401
     25 N         139.7149  146.1296  157.1057 N.1     1  UNL1       -0.1876
     26 O         144.1043  143.7231  161.3119 O.3     1  UNL1       -0.4600
     27 C         144.3138  142.2633  161.0382 C.3     1  UNL1        0.2071
     28 C         143.8942  141.2421  162.0537 C.3     1  UNL1        0.0466
     29 C         142.4772  140.7510  162.0823 C.3     1  UNL1        0.0211
     30 C         142.0578  139.7299  163.0978 C.3     1  UNL1        0.0722
     31 N         143.0553  139.1997  164.0846 N.3     1  UNL1       -0.2740
     32 C         144.4724  139.6908  164.0560 C.3     1  UNL1        0.0722
     33 C         144.8918  140.7119  163.0405 C.3     1  UNL1        0.0211
     34 C         142.6358  138.1785  165.1002 C.3     1  UNL1        0.0576
     35 C         141.4509  137.2984  164.8334 C.3     1  UNL1        0.0173
     36 C         143.4014  138.0375  166.3824 C.3     1  UNL1        0.0173
@<TRIPOS>BOND
     1     7     8    1
     2     8     9   am
     3     9    10    2
     4     9     1    1
     5     1     2   ar
     6     2    12    1
     7    12    14    1
     8    14    15    1
     9    15    16    1
    10    16    17    1
    11    17    18    1
    12    18    19    1
    13    19    20    1
    14    20    21    1
    15    18    22    1
    16    22    23    1
    17     2     3   ar
    18     3     4   ar
    19     4    24    1
    20    24    25    3
    21     4     5   ar
    22     5     6   ar
    23     6    26    1
    24    26    27    1
    25    27    28    1
    26    28    29    1
    27    29    30    1
    28    30    31    1
    29    31    34    1
    30    34    35    1
    31    34    36    1
    32    31    32    1
    33    32    33    1
    34     6     1   ar
    35    33    28    1
    36    23    15    1
    37    21    18    1
    38     8    11    1
    39    12    13    1
@<TRIPOS>MOLECULE
*****
 36 39 0 0 0
SMALL
GASTEIGER

@<TRIPOS>ATOM
      1 C         141.6587  144.4793  161.6497 C.ar    1  UNL1        0.1377
      2 C         141.2263  144.9832  162.9948 C.ar    1  UNL1        0.1397
      3 N         142.1743  144.9297  164.1560 N.ar    1  UNL1       -0.2027
      4 C         143.5547  144.3723  163.9722 C.ar    1  UNL1        0.2367
      5 N         143.9871  143.8684  162.6272 N.ar    1  UNL1       -0.1828
      6 C         143.0391  143.9219  161.4659 C.ar    1  UNL1        0.2339
      7 C         140.2149  145.1566  158.0156 C.3     1  UNL1        0.1109
      8 N         141.1629  145.1031  159.1768 N.am    1  UNL1       -0.2990
      9 C         140.7107  144.5328  160.4885 C.2     1  UNL1        0.2532
     10 O         139.3106  144.0160  160.6389 O.2     1  UNL1       -0.2699
     11 H         142.0818  145.4422  159.0781 H       1  UNL1        0.1498
     12 N         139.8459  145.5406  163.1786 N.pl3   1  UNL1       -0.3178
     13 H         139.4904  146.1966  162.5363 H       1  UNL1        0.1482
     14 C         139.0071  145.0984  164.3408 C.3     1  UNL1        0.0881
     15 C         138.9666  143.6500  164.7285 C.3     1  UNL1        0.0196
     16 C         139.7857  143.1600  165.8856 C.3     1  UNL1        0.0017
     17 C         139.7452  141.7115  166.2732 C.3     1  UNL1        0.0001
     18 C         138.8855  140.7530  165.5038 C.3     1  UNL1        0.0000
     19 C         139.5423  139.9201  166.5645 C.3     1  UNL1        0.0000
     20 C         138.8282  138.7045  166.0520 C.3     1  UNL1        0.0000
     21 C         138.1715  139.5374  164.9913 C.3     1  UNL1        0.0000
     22 C         138.0664  141.2429  164.3467 C.3     1  UNL1        0.0001
     23 C         138.1069  142.6914  163.9590 C.3     1  UNL1        0.0017
     24 C         144.5027  144.3188  165.1334 C.1     1  UNL1        0.1401
     25 N         145.4507  144.2653  166.2947 N.1     1  UNL1       -0.1876
     26 O         143.4716  143.4180  160.1209 O.3     1  UNL1       -0.4600
     27 C         143.3933  141.9531  159.8081 C.3     1  UNL1        0.2071
     28 C         143.0477  140.9727  160.8896 C.3     1  UNL1        0.0466
     29 C         141.6147  140.7585  161.2776 C.3     1  UNL1        0.0211
     30 C         141.2691  139.7781  162.3590 C.3     1  UNL1        0.0722
     31 N         142.3565  139.0120  163.0524 N.3     1  UNL1       -0.2740
     32 C         143.7894  139.2263  162.6643 C.3     1  UNL1        0.0722
     33 C         144.1350  140.2066  161.5829 C.3     1  UNL1        0.0211
     34 C         142.0108  138.0316  164.1338 C.3     1  UNL1        0.0576
     35 C         141.0491  136.9150  163.8544 C.3     1  UNL1        0.0173
     36 C         142.6269  138.1680  165.4946 C.3     1  UNL1        0.0173
@<TRIPOS>BOND
     1     7     8    1
     2     8     9   am
     3     9    10    2
     4     9     1    1
     5     1     2   ar
     6     2    12    1
     7    12    14    1
     8    14    15    1
     9    15    16    1
    10    16    17    1
    11    17    18    1
    12    18    19    1
    13    19    20    1
    14    20    21    1
    15    18    22    1
    16    22    23    1
    17     2     3   ar
    18     3     4   ar
    19     4    24    1
    20    24    25    3
    21     4     5   ar
    22     5     6   ar
    23     6    26    1
    24    26    27    1
    25    27    28    1
    26    28    29    1
    27    29    30    1
    28    30    31    1
    29    31    34    1
    30    34    35    1
    31    34    36    1
    32    31    32    1
    33    32    33    1
    34     6     1   ar
    35    33    28    1
    36    23    15    1
    37    21    18    1
    38     8    11    1
    39    12    13    1
@<TRIPOS>MOLECULE
*****
 36 39 0 0 0
SMALL
GASTEIGER

@<TRIPOS>ATOM
      1 C         141.2721  144.2531  161.2395 C.ar    1  UNL1        0.1377
      2 C         141.9844  144.6672  162.4930 C.ar    1  UNL1        0.1397
      3 N         141.2036  144.9372  163.7449 N.ar    1  UNL1       -0.2027
      4 C         139.7106  144.7932  163.7435 C.ar    1  UNL1        0.2367
      5 N         138.9982  144.3792  162.4901 N.ar    1  UNL1       -0.1828
      6 C         139.7790  144.1091  161.2380 C.ar    1  UNL1        0.2339
      7 C         142.6206  144.5660  157.5201 C.3     1  UNL1        0.1109
      8 N         141.8399  144.8361  158.7721 N.am    1  UNL1       -0.2990
      9 C         142.0528  143.9831  159.9875 C.2     1  UNL1        0.2532
     10 O         143.0465  142.8601  159.9508 O.2     1  UNL1       -0.2699
     11 H         141.1876  145.5731  158.7961 H       1  UNL1        0.1498
     12 N         143.4775  144.8112  162.4944 N.pl3   1  UNL1       -0.3178
     13 H         143.8916  145.6476  162.1811 H       1  UNL1        0.1482
     14 C         144.3395  143.6809  162.9733 C.3     1  UNL1        0.0881
     15 C         143.8516  142.7763  164.0657 C.3     1  UNL1        0.0196
     16 C         143.8617  143.2471  165.4899 C.3     1  UNL1        0.0017
     17 C         143.3738  142.3424  166.5824 C.3     1  UNL1        0.0001
     18 C         142.8757  140.9670  166.2507 C.3     1  UNL1        0.0000
     19 C         142.7382  141.0811  167.7401 C.3     1  UNL1        0.0000
     20 C         142.1856  139.6876  167.7958 C.3     1  UNL1        0.0000
     21 C         142.3231  139.5735  166.3064 C.3     1  UNL1        0.0000
     22 C         142.8655  140.4962  164.8266 C.3     1  UNL1        0.0001
     23 C         143.3535  141.4009  163.7341 C.3     1  UNL1        0.0017
     24 C         138.9298  145.0633  164.9954 C.1     1  UNL1        0.1401
     25 N         138.1491  145.3333  166.2475 N.1     1  UNL1       -0.1876
     26 O         139.0667  143.6950  159.9846 O.3     1  UNL1       -0.4600
     27 C         138.4768  142.3202  159.8765 C.3     1  UNL1        0.2071
     28 C         138.8371  141.2681  160.8833 C.3     1  UNL1        0.0466
     29 C         140.1848  140.6117  160.8325 C.3     1  UNL1        0.0211
     30 C         140.5450  139.5598  161.8392 C.3     1  UNL1        0.0722
     31 N         139.5575  139.1643  162.8968 N.3     1  UNL1       -0.2740
     32 C         138.2098  139.8207  162.9476 C.3     1  UNL1        0.0722
     33 C         137.8496  140.8726  161.9408 C.3     1  UNL1        0.0211
     34 C         139.9178  138.1123  163.9036 C.3     1  UNL1        0.0576
     35 C         139.0985  137.9553  165.1502 C.3     1  UNL1        0.0173
     36 C         141.0975  137.2173  163.6637 C.3     1  UNL1        0.0173
@<TRIPOS>BOND
     1     7     8    1
     2     8     9   am
     3     9    10    2
     4     9     1    1
     5     1     2   ar
     6     2    12    1
     7    12    14    1
     8    14    15    1
     9    15    16    1
    10    16    17    1
    11    17    18    1
    12    18    19    1
    13    19    20    1
    14    20    21    1
    15    18    22    1
    16    22    23    1
    17     2     3   ar
    18     3     4   ar
    19     4    24    1
    20    24    25    3
    21     4     5   ar
    22     5     6   ar
    23     6    26    1
    24    26    27    1
    25    27    28    1
    26    28    29    1
    27    29    30    1
    28    30    31    1
    29    31    34    1
    30    34    35    1
    31    34    36    1
    32    31    32    1
    33    32    33    1
    34     6     1   ar
    35    33    28    1
    36    23    15    1
    37    21    18    1
    38     8    11    1
    39    12    13    1
@<TRIPOS>MOLECULE
*****
 36 39 0 0 0
SMALL
GASTEIGER

@<TRIPOS>ATOM
      1 C         143.0913  138.7258  164.4421 C.ar    1  UNL1        0.1377
      2 C         141.9799  137.9144  163.8451 C.ar    1  UNL1        0.1397
      3 N         141.9271  137.6908  162.3628 N.ar    1  UNL1       -0.2027
      4 C         142.9857  138.2787  161.4774 C.ar    1  UNL1        0.2367
      5 N         144.0971  139.0901  162.0744 N.ar    1  UNL1       -0.1828
      6 C         144.1499  139.3137  163.5567 C.ar    1  UNL1        0.2339
      7 C         142.4005  140.2826  168.0266 C.3     1  UNL1        0.1109
      8 N         142.3477  140.0591  166.5444 N.am    1  UNL1       -0.2990
      9 C         143.1442  138.9494  165.9244 C.2     1  UNL1        0.2532
     10 O         143.9934  138.0633  166.7867 O.2     1  UNL1       -0.2699
     11 H         141.7903  140.6406  165.9784 H       1  UNL1        0.1498
     12 N         140.9213  137.3265  164.7304 N.pl3   1  UNL1       -0.3178
     13 H         141.1750  136.7323  165.4732 H       1  UNL1        0.1482
     14 C         139.4762  137.6440  164.4840 C.3     1  UNL1        0.0881
     15 C         139.0545  139.0578  164.2133 C.3     1  UNL1        0.0196
     16 C         138.6956  139.4796  162.8193 C.3     1  UNL1        0.0017
     17 C         138.2739  140.8934  162.5486 C.3     1  UNL1        0.0001
     18 C         138.2111  141.8855  163.6719 C.3     1  UNL1        0.0000
     19 C         137.7920  142.6524  162.4527 C.3     1  UNL1        0.0000
     20 C         137.6148  143.8850  163.2890 C.3     1  UNL1        0.0000
     21 C         138.0339  143.1181  164.5082 C.3     1  UNL1        0.0000
     22 C         138.5701  141.4637  165.0659 C.3     1  UNL1        0.0001
     23 C         138.9918  140.0499  165.3366 C.3     1  UNL1        0.0017
     24 C         142.9329  138.0551  159.9952 C.1     1  UNL1        0.1401
     25 N         142.8801  137.8315  158.5128 N.1     1  UNL1       -0.1876
     26 O         145.2613  140.1251  164.1537 O.3     1  UNL1       -0.4600
     27 C         145.1055  141.6085  164.3119 C.3     1  UNL1        0.2071
     28 C         144.0328  142.3349  163.5557 C.3     1  UNL1        0.0466
     29 C         142.7191  142.6313  164.2162 C.3     1  UNL1        0.0211
     30 C         141.6465  143.3577  163.4601 C.3     1  UNL1        0.0722
     31 N         141.8875  143.7875  162.0433 N.3     1  UNL1       -0.2740
     32 C         143.2012  143.4911  161.3828 C.3     1  UNL1        0.0722
     33 C         144.2738  142.7648  162.1390 C.3     1  UNL1        0.0211
     34 C         140.8148  144.5139  161.2871 C.3     1  UNL1        0.0576
     35 C         140.2741  143.9371  160.0124 C.3     1  UNL1        0.0173
     36 C         140.2829  145.8170  161.8057 C.3     1  UNL1        0.0173
@<TRIPOS>BOND
     1     7     8    1
     2     8     9   am
     3     9    10    2
     4     9     1    1
     5     1     2   ar
     6     2    12    1
     7    12    14    1
     8    14    15    1
     9    15    16    1
    10    16    17    1
    11    17    18    1
    12    18    19    1
    13    19    20    1
    14    20    21    1
    15    18    22    1
    16    22    23    1
    17     2     3   ar
    18     3     4   ar
    19     4    24    1
    20    24    25    3
    21     4     5   ar
    22     5     6   ar
    23     6    26    1
    24    26    27    1
    25    27    28    1
    26    28    29    1
    27    29    30    1
    28    30    31    1
    29    31    34    1
    30    34    35    1
    31    34    36    1
    32    31    32    1
    33    32    33    1
    34     6     1   ar
    35    33    28    1
    36    23    15    1
    37    21    18    1
    38     8    11    1
    39    12    13    1
@<TRIPOS>MOLECULE
*****
 36 39 0 0 0
SMALL
GASTEIGER

@<TRIPOS>ATOM
      1 C         143.0579  143.3307  161.3253 C.ar    1  UNL1        0.1377
      2 C         142.0726  144.4060  161.6760 C.ar    1  UNL1        0.1397
      3 N         141.3946  145.1856  160.5886 N.ar    1  UNL1       -0.2027
      4 C         141.7018  144.8899  159.1505 C.ar    1  UNL1        0.2367
      5 N         142.6870  143.8147  158.7997 N.ar    1  UNL1       -0.1828
      6 C         143.3651  143.0350  159.8871 C.ar    1  UNL1        0.2339
      7 C         145.9117  141.7074  163.5548 C.3     1  UNL1        0.1109
      8 N         145.2337  142.4870  162.4674 N.am    1  UNL1       -0.2990
      9 C         143.7360  142.5511  162.4127 C.2     1  UNL1        0.2532
     10 O         142.9164  141.8356  163.4453 O.2     1  UNL1       -0.2699
     11 H         145.7716  142.9566  161.7896 H       1  UNL1        0.1498
     12 N         141.7654  144.7017  163.1141 N.pl3   1  UNL1       -0.3178
     13 H         142.4849  144.9871  163.7225 H       1  UNL1        0.1482
     14 C         140.3621  144.5624  163.6253 C.3     1  UNL1        0.0881
     15 C         139.9554  143.3274  164.3731 C.3     1  UNL1        0.0196
     16 C         138.9311  142.4002  163.7891 C.3     1  UNL1        0.0017
     17 C         138.5244  141.1651  164.5369 C.3     1  UNL1        0.0001
     18 C         139.1419  140.8573  165.8687 C.3     1  UNL1        0.0000
     19 C         138.1840  139.7311  165.6153 C.3     1  UNL1        0.0000
     20 C         138.5667  139.1106  166.9263 C.3     1  UNL1        0.0000
     21 C         139.5246  140.2368  167.1797 C.3     1  UNL1        0.0000
     22 C         140.1662  141.7845  166.4527 C.3     1  UNL1        0.0001
     23 C         140.5729  143.0195  165.7049 C.3     1  UNL1        0.0017
     24 C         141.0237  145.6695  158.0631 C.1     1  UNL1        0.1401
     25 N         140.3456  146.4491  156.9757 N.1     1  UNL1       -0.1876
     26 O         144.3504  141.9598  159.5364 O.3     1  UNL1       -0.4600
     27 C         143.8722  140.5646  159.2630 C.3     1  UNL1        0.2071
     28 C         143.0087  139.8577  160.2654 C.3     1  UNL1        0.0466
     29 C         143.6365  139.0002  161.3239 C.3     1  UNL1        0.0211
     30 C         142.7730  138.2934  162.3263 C.3     1  UNL1        0.0722
     31 N         141.2816  138.4442  162.2701 N.3     1  UNL1       -0.2740
     32 C         140.6538  139.3018  161.2117 C.3     1  UNL1        0.0722
     33 C         141.5174  140.0085  160.2093 C.3     1  UNL1        0.0211
     34 C         140.4181  137.7374  163.2726 C.3     1  UNL1        0.0576
     35 C         141.0242  137.1885  164.5300 C.3     1  UNL1        0.0173
     36 C         138.9484  137.5796  163.0175 C.3     1  UNL1        0.0173
@<TRIPOS>BOND
     1     7     8    1
     2     8     9   am
     3     9    10    2
     4     9     1    1
     5     1     2   ar
     6     2    12    1
     7    12    14    1
     8    14    15    1
     9    15    16    1
    10    16    17    1
    11    17    18    1
    12    18    19    1
    13    19    20    1
    14    20    21    1
    15    18    22    1
    16    22    23    1
    17     2     3   ar
    18     3     4   ar
    19     4    24    1
    20    24    25    3
    21     4     5   ar
    22     5     6   ar
    23     6    26    1
    24    26    27    1
    25    27    28    1
    26    28    29    1
    27    29    30    1
    28    30    31    1
    29    31    34    1
    30    34    35    1
    31    34    36    1
    32    31    32    1
    33    32    33    1
    34     6     1   ar
    35    33    28    1
    36    23    15    1
    37    21    18    1
    38     8    11    1
    39    12    13    1
