@<TRIPOS>MOLECULE
*****
 36 39 0 0 0
SMALL
GASTEIGER

@<TRIPOS>ATOM
      1 O         138.4130  139.4871  159.1423 O.2     1  UNL1       -0.2733
      2 C         139.6688  138.7836  158.7203 C.2     1  UNL1        0.2426
      3 N         140.6546  138.3245  159.7534 N.am    1  UNL1       -0.3018
      4 H         141.4788  137.8628  159.4765 H       1  UNL1        0.1495
      5 C         140.3846  138.5688  161.2086 C.3     1  UNL1        0.1035
      6 C         139.7661  139.6828  162.0002 C.3     1  UNL1        0.0933
      7 N         140.0028  138.9144  163.2665 N.3     1  UNL1       -0.2711
      8 C         140.6213  137.8004  162.4750 C.3     1  UNL1        0.0933
      9 C         139.7328  139.1588  164.7216 C.3     1  UNL1        0.0578
     10 C         138.4775  138.6308  165.3505 C.3     1  UNL1        0.0189
     11 C         138.2075  138.8752  166.8057 C.3     1  UNL1        0.0373
     12 C         139.1928  139.6475  167.6319 C.3     1  UNL1        0.1562
     13 O         138.1545  139.3522  168.6733 O.3     1  UNL1       -0.3780
     14 C         140.4481  140.1755  167.0030 C.3     1  UNL1        0.0373
     15 C         140.7181  139.9311  165.5479 C.3     1  UNL1        0.0189
     16 H         137.4323  138.8422  168.2743 H       1  UNL1        0.2109
     17 C         139.8176  140.3173  168.8198 C.ar    1  UNL1        0.2300
     18 N         140.2830  139.6360  170.0725 N.ar    1  UNL1       -0.2084
     19 C         140.8397  140.6837  170.9904 C.ar    1  UNL1        0.1424
     20 C         140.7182  142.0124  170.3050 C.ar    1  UNL1        0.2019
     21 O         140.0865  141.7860  168.9635 O.2     1  UNL1       -0.4328
     22 C         139.9388  138.5393  157.2653 C.3     1  UNL1        0.1759
     23 N         140.3920  137.1859  156.8034 N.am    1  UNL1       -0.2931
     24 C         141.8468  136.8243  156.8548 C.2     1  UNL1        0.2462
     25 O         142.8485  137.8159  157.3679 O.2     1  UNL1       -0.2701
     26 H         139.7345  136.5351  156.4666 H       1  UNL1        0.1502
     27 C         142.3000  135.4710  156.3930 C.ar    1  UNL1        0.0533
     28 C         141.6962  134.8565  155.1651 C.ar    1  UNL1        0.0045
     29 C         142.1494  133.5032  154.7033 C.ar    1  UNL1        0.0001
     30 C         143.2064  132.7644  155.4695 C.ar    1  UNL1        0.0039
     31 C         143.8102  133.3789  156.6974 C.ar    1  UNL1        0.0716
     32 C         143.3570  134.7322  157.1591 C.ar    1  UNL1        0.0084
     33 C         144.8672  132.6402  157.4635 C.3     1  UNL1        0.4186
     34 F         145.9242  131.9014  158.2296 F       1  UNL1       -0.1659
     35 F         144.6186  133.5187  158.6536 F       1  UNL1       -0.1659
     36 F         145.1158  131.7616  156.2734 F       1  UNL1       -0.1659
@<TRIPOS>BOND
     1     1     2    2
     2     2    22    1
     3    22    23    1
     4    23    24   am
     5    24    25    2
     6    24    27    1
     7    27    28   ar
     8    28    29   ar
     9    29    30   ar
    10    30    31   ar
    11    31    33    1
    12    33    34    1
    13    33    35    1
    14    33    36    1
    15    31    32   ar
    16     2     3   am
    17     3     5    1
    18     5     6    1
    19     6     7    1
    20     9     7    1
    21     9    10    1
    22    10    11    1
    23    11    12    1
    24    12    13    1
    25    12    17    1
    26    17    18   ar
    27    18    19   ar
    28    19    20   ar
    29    20    21   ar
    30    12    14    1
    31    14    15    1
    32     7     8    1
    33    32    27   ar
    34     8     5    1
    35    15     9    1
    36    21    17   ar
    37    23    26    1
    38     3     4    1
    39    13    16    1
@<TRIPOS>MOLECULE
*****
 36 39 0 0 0
SMALL
GASTEIGER

@<TRIPOS>ATOM
      1 O         143.8981  139.2658  159.1223 O.2     1  UNL1       -0.2733
      2 C         142.6325  138.7317  158.5197 C.2     1  UNL1        0.2426
      3 N         141.4606  138.4101  159.3990 N.am    1  UNL1       -0.3018
      4 H         140.6300  138.0596  159.0036 H       1  UNL1        0.1495
      5 C         141.5543  138.6227  160.8810 C.3     1  UNL1        0.1035
      6 C         141.5053  137.7303  162.0857 C.3     1  UNL1        0.0933
      7 N         141.6867  138.9232  162.9768 N.3     1  UNL1       -0.2711
      8 C         141.7356  139.8156  161.7721 C.3     1  UNL1        0.0933
      9 C         141.7803  139.1357  164.4586 C.3     1  UNL1        0.0578
     10 C         143.0872  138.9282  165.1650 C.3     1  UNL1        0.0189
     11 C         143.1808  139.1407  166.6470 C.3     1  UNL1        0.0373
     12 C         141.9675  139.5607  167.4225 C.3     1  UNL1        0.1562
     13 O         142.9745  139.4906  168.5320 O.3     1  UNL1       -0.3780
     14 C         140.6606  139.7682  166.7162 C.3     1  UNL1        0.0373
     15 C         140.5670  139.5557  165.2343 C.3     1  UNL1        0.0189
     16 H         143.8345  139.2230  168.1717 H       1  UNL1        0.2109
     17 C         141.1039  139.9563  168.5834 C.ar    1  UNL1        0.2300
     18 N         139.6059  139.8937  168.6297 N.ar    1  UNL1       -0.2084
     19 C         139.1630  140.3827  169.9768 C.ar    1  UNL1        0.1424
     20 C         140.3871  140.7476  170.7630 C.ar    1  UNL1        0.2019
     21 O         141.5867  140.4841  169.9019 O.2     1  UNL1       -0.4328
     22 C         142.5388  138.5191  157.0379 C.3     1  UNL1        0.1759
     23 N         142.3157  137.1404  156.4905 N.am    1  UNL1       -0.2931
     24 C         143.4288  136.4246  155.7844 C.2     1  UNL1        0.2462
     25 O         144.7650  137.0875  155.6255 O.2     1  UNL1       -0.2701
     26 H         141.4387  136.7054  156.5948 H       1  UNL1        0.1502
     27 C         143.2056  135.0459  155.2370 C.ar    1  UNL1        0.0533
     28 C         142.3430  134.8505  154.0256 C.ar    1  UNL1        0.0045
     29 C         142.1199  133.4718  153.4783 C.ar    1  UNL1        0.0001
     30 C         142.7595  132.2887  154.1425 C.ar    1  UNL1        0.0039
     31 C         143.6221  132.4842  155.3539 C.ar    1  UNL1        0.0716
     32 C         143.8452  133.8628  155.9012 C.ar    1  UNL1        0.0084
     33 C         144.2617  131.3010  156.0180 C.3     1  UNL1        0.4186
     34 F         144.9013  130.1178  156.6822 F       1  UNL1       -0.1659
     35 F         145.4674  132.1334  156.3398 F       1  UNL1       -0.1659
     36 F         143.0560  130.4686  155.6963 F       1  UNL1       -0.1659
@<TRIPOS>BOND
     1     1     2    2
     2     2    22    1
     3    22    23    1
     4    23    24   am
     5    24    25    2
     6    24    27    1
     7    27    28   ar
     8    28    29   ar
     9    29    30   ar
    10    30    31   ar
    11    31    33    1
    12    33    34    1
    13    33    35    1
    14    33    36    1
    15    31    32   ar
    16     2     3   am
    17     3     5    1
    18     5     6    1
    19     6     7    1
    20     9     7    1
    21     9    10    1
    22    10    11    1
    23    11    12    1
    24    12    13    1
    25    12    17    1
    26    17    18   ar
    27    18    19   ar
    28    19    20   ar
    29    20    21   ar
    30    12    14    1
    31    14    15    1
    32     7     8    1
    33    32    27   ar
    34     8     5    1
    35    15     9    1
    36    21    17   ar
    37    23    26    1
    38     3     4    1
    39    13    16    1
@<TRIPOS>MOLECULE
*****
 36 39 0 0 0
SMALL
GASTEIGER

@<TRIPOS>ATOM
      1 O         143.3471  139.1026  160.3612 O.2     1  UNL1       -0.2733
      2 C         142.3068  138.4890  159.4715 C.2     1  UNL1        0.2426
      3 N         140.9506  138.1586  160.0206 N.am    1  UNL1       -0.3018
      4 H         140.2679  137.7559  159.4366 H       1  UNL1        0.1495
      5 C         140.6346  138.4417  161.4593 C.3     1  UNL1        0.1035
      6 C         140.3987  137.6007  162.6788 C.3     1  UNL1        0.0933
      7 N         140.1876  138.8420  163.4940 N.3     1  UNL1       -0.2711
      8 C         140.4235  139.6830  162.2746 C.3     1  UNL1        0.0933
      9 C         139.8716  139.1251  164.9328 C.3     1  UNL1        0.0578
     10 C         138.5777  138.6494  165.5241 C.3     1  UNL1        0.0189
     11 C         138.2617  138.9325  166.9629 C.3     1  UNL1        0.0373
     12 C         139.2395  139.6913  167.8103 C.3     1  UNL1        0.1562
     13 O         138.1544  139.4500  168.8173 O.3     1  UNL1       -0.3780
     14 C         140.5333  140.1670  167.2189 C.3     1  UNL1        0.0373
     15 C         140.8494  139.8839  165.7802 C.3     1  UNL1        0.0189
     16 H         137.4318  138.9541  168.4015 H       1  UNL1        0.2109
     17 C         139.8405  140.3663  169.0074 C.ar    1  UNL1        0.2300
     18 N         140.3877  139.6806  170.2242 N.ar    1  UNL1       -0.2084
     19 C         140.8851  140.7361  171.1667 C.ar    1  UNL1        0.1424
     20 C         140.6454  142.0741  170.5326 C.ar    1  UNL1        0.2019
     21 O         139.9997  141.8456  169.1981 O.2     1  UNL1       -0.4328
     22 C         142.6228  138.2059  158.0328 C.3     1  UNL1        0.1759
     23 N         142.9761  136.8130  157.6026 N.am    1  UNL1       -0.2931
     24 C         142.1448  136.1140  156.5680 C.2     1  UNL1        0.2462
     25 O         140.9602  136.8079  155.9637 O.2     1  UNL1       -0.2701
     26 H         143.7536  136.3575  157.9992 H       1  UNL1        0.1502
     27 C         142.4981  134.7211  156.1378 C.ar    1  UNL1        0.0533
     28 C         143.8726  134.1810  156.4002 C.ar    1  UNL1        0.0045
     29 C         144.2258  132.7881  155.9699 C.ar    1  UNL1        0.0001
     30 C         143.2045  131.9354  155.2773 C.ar    1  UNL1        0.0039
     31 C         141.8299  132.4755  155.0149 C.ar    1  UNL1        0.0716
     32 C         141.4767  133.8684  155.4451 C.ar    1  UNL1        0.0084
     33 C         140.8086  131.6228  154.3222 C.3     1  UNL1        0.4186
     34 F         139.7873  130.7701  153.6296 F       1  UNL1       -0.1659
     35 F         140.9759  130.5674  155.3749 F       1  UNL1       -0.1659
     36 F         140.6413  132.6782  153.2696 F       1  UNL1       -0.1659
@<TRIPOS>BOND
     1     1     2    2
     2     2    22    1
     3    22    23    1
     4    23    24   am
     5    24    25    2
     6    24    27    1
     7    27    28   ar
     8    28    29   ar
     9    29    30   ar
    10    30    31   ar
    11    31    33    1
    12    33    34    1
    13    33    35    1
    14    33    36    1
    15    31    32   ar
    16     2     3   am
    17     3     5    1
    18     5     6    1
    19     6     7    1
    20     9     7    1
    21     9    10    1
    22    10    11    1
    23    11    12    1
    24    12    13    1
    25    12    17    1
    26    17    18   ar
    27    18    19   ar
    28    19    20   ar
    29    20    21   ar
    30    12    14    1
    31    14    15    1
    32     7     8    1
    33    32    27   ar
    34     8     5    1
    35    15     9    1
    36    21    17   ar
    37    23    26    1
    38     3     4    1
    39    13    16    1
@<TRIPOS>MOLECULE
*****
 36 39 0 0 0
SMALL
GASTEIGER

@<TRIPOS>ATOM
      1 O         144.0001  138.9235  159.7177 O.2     1  UNL1       -0.2733
      2 C         142.8239  139.0950  158.8027 C.2     1  UNL1        0.2426
      3 N         141.5732  139.7538  159.3044 N.am    1  UNL1       -0.3018
      4 H         140.8013  139.8663  158.7038 H       1  UNL1        0.1495
      5 C         141.4986  140.2411  160.7211 C.3     1  UNL1        0.1035
      6 C         142.0570  141.4150  161.4696 C.3     1  UNL1        0.0933
      7 N         141.3932  140.9304  162.7245 N.3     1  UNL1       -0.2711
      8 C         140.8349  139.7566  161.9759 C.3     1  UNL1        0.0933
      9 C         141.3187  141.4178  164.1411 C.3     1  UNL1        0.0578
     10 C         140.1374  142.2223  164.5963 C.3     1  UNL1        0.0189
     11 C         140.0629  142.7097  166.0130 C.3     1  UNL1        0.0373
     12 C         141.1697  142.3926  166.9745 C.3     1  UNL1        0.1562
     13 O         140.2635  143.1822  167.8718 O.3     1  UNL1       -0.3780
     14 C         142.3510  141.5881  166.5193 C.3     1  UNL1        0.0373
     15 C         142.4255  141.1007  165.1026 C.3     1  UNL1        0.0189
     16 H         139.4803  143.4638  167.3735 H       1  UNL1        0.2109
     17 C         141.9618  142.3497  168.2475 C.ar    1  UNL1        0.2300
     18 N         143.4497  142.4987  168.3657 N.ar    1  UNL1       -0.2084
     19 C         143.8125  142.3913  169.8172 C.ar    1  UNL1        0.1424
     20 C         142.5488  142.1759  170.5961 C.ar    1  UNL1        0.2019
     21 O         141.4050  142.1501  169.6260 O.2     1  UNL1       -0.4328
     22 C         142.8984  138.6077  157.3861 C.3     1  UNL1        0.1759
     23 N         142.7363  137.1469  157.0859 N.am    1  UNL1       -0.2931
     24 C         143.6967  136.4603  156.1606 C.2     1  UNL1        0.2462
     25 O         144.8192  137.2343  155.5355 O.2     1  UNL1       -0.2701
     26 H         141.9996  136.6389  157.4962 H       1  UNL1        0.1502
     27 C         143.5346  134.9996  155.8604 C.ar    1  UNL1        0.0533
     28 C         142.8630  134.5646  154.5917 C.ar    1  UNL1        0.0045
     29 C         142.7009  133.1040  154.2915 C.ar    1  UNL1        0.0001
     30 C         143.2104  132.0782  155.2602 C.ar    1  UNL1        0.0039
     31 C         143.8820  132.5131  156.5289 C.ar    1  UNL1        0.0716
     32 C         144.0441  133.9738  156.8291 C.ar    1  UNL1        0.0084
     33 C         144.3915  131.4874  157.4976 C.3     1  UNL1        0.4186
     34 F         144.9009  130.4616  158.4662 F       1  UNL1       -0.1659
     35 F         143.0985  130.7358  157.3817 F       1  UNL1       -0.1659
     36 F         145.6844  132.2389  157.6134 F       1  UNL1       -0.1659
@<TRIPOS>BOND
     1     1     2    2
     2     2    22    1
     3    22    23    1
     4    23    24   am
     5    24    25    2
     6    24    27    1
     7    27    28   ar
     8    28    29   ar
     9    29    30   ar
    10    30    31   ar
    11    31    33    1
    12    33    34    1
    13    33    35    1
    14    33    36    1
    15    31    32   ar
    16     2     3   am
    17     3     5    1
    18     5     6    1
    19     6     7    1
    20     9     7    1
    21     9    10    1
    22    10    11    1
    23    11    12    1
    24    12    13    1
    25    12    17    1
    26    17    18   ar
    27    18    19   ar
    28    19    20   ar
    29    20    21   ar
    30    12    14    1
    31    14    15    1
    32     7     8    1
    33    32    27   ar
    34     8     5    1
    35    15     9    1
    36    21    17   ar
    37    23    26    1
    38     3     4    1
    39    13    16    1
@<TRIPOS>MOLECULE
*****
 36 39 0 0 0
SMALL
GASTEIGER

@<TRIPOS>ATOM
      1 O         141.6066  145.5110  159.0582 O.2     1  UNL1       -0.2733
      2 C         140.3395  144.9046  158.5322 C.2     1  UNL1        0.2426
      3 N         139.5030  144.0294  159.4178 N.am    1  UNL1       -0.3018
      4 H         138.6713  143.6314  159.0726 H       1  UNL1        0.1495
      5 C         139.9336  143.7606  160.8293 C.3     1  UNL1        0.1035
      6 C         140.1885  144.6084  162.0402 C.3     1  UNL1        0.0933
      7 N         140.5426  143.3805  162.8255 N.3     1  UNL1       -0.2711
      8 C         140.2877  142.5326  161.6147 C.3     1  UNL1        0.0933
      9 C         140.9732  143.1117  164.2370 C.3     1  UNL1        0.0578
     10 C         142.4189  142.8558  164.5443 C.3     1  UNL1        0.0189
     11 C         142.8495  142.5871  165.9558 C.3     1  UNL1        0.0373
     12 C         141.8343  142.5742  167.0600 C.3     1  UNL1        0.1562
     13 O         143.0774  142.2782  167.8455 O.3     1  UNL1       -0.3780
     14 C         140.3886  142.8301  166.7528 C.3     1  UNL1        0.0373
     15 C         139.9580  143.0989  165.3413 C.3     1  UNL1        0.0189
     16 H         143.8402  142.2541  167.2467 H       1  UNL1        0.2109
     17 C         141.2509  142.4585  168.4371 C.ar    1  UNL1        0.2300
     18 N         141.4873  141.3359  169.4034 N.ar    1  UNL1       -0.2084
     19 C         140.7111  141.6288  170.6531 C.ar    1  UNL1        0.1424
     20 C         139.9950  142.9324  170.4591 C.ar    1  UNL1        0.2019
     21 O         140.3286  143.4453  169.0896 O.2     1  UNL1       -0.4328
     22 C         139.9088  145.1733  157.1208 C.3     1  UNL1        0.1759
     23 N         140.1337  146.5260  156.5127 N.am    1  UNL1       -0.2931
     24 C         139.1997  147.0382  155.4566 C.2     1  UNL1        0.2462
     25 O         138.0409  146.1978  155.0086 O.2     1  UNL1       -0.2701
     26 H         140.8943  147.0776  156.8067 H       1  UNL1        0.1502
     27 C         139.4246  148.3909  154.8485 C.ar    1  UNL1        0.0533
     28 C         140.0985  148.5106  153.5138 C.ar    1  UNL1        0.0045
     29 C         140.3234  149.8632  152.9058 C.ar    1  UNL1        0.0001
     30 C         139.8743  151.0962  153.6325 C.ar    1  UNL1        0.0039
     31 C         139.2004  150.9766  154.9672 C.ar    1  UNL1        0.0716
     32 C         138.9756  149.6239  155.5752 C.ar    1  UNL1        0.0084
     33 C         138.7514  152.2096  155.6939 C.3     1  UNL1        0.4186
     34 F         138.3023  153.4426  156.4205 F       1  UNL1       -0.1659
     35 F         139.0900  151.5612  157.0034 F       1  UNL1       -0.1659
     36 F         138.4127  152.8580  154.3843 F       1  UNL1       -0.1659
@<TRIPOS>BOND
     1     1     2    2
     2     2    22    1
     3    22    23    1
     4    23    24   am
     5    24    25    2
     6    24    27    1
     7    27    28   ar
     8    28    29   ar
     9    29    30   ar
    10    30    31   ar
    11    31    33    1
    12    33    34    1
    13    33    35    1
    14    33    36    1
    15    31    32   ar
    16     2     3   am
    17     3     5    1
    18     5     6    1
    19     6     7    1
    20     9     7    1
    21     9    10    1
    22    10    11    1
    23    11    12    1
    24    12    13    1
    25    12    17    1
    26    17    18   ar
    27    18    19   ar
    28    19    20   ar
    29    20    21   ar
    30    12    14    1
    31    14    15    1
    32     7     8    1
    33    32    27   ar
    34     8     5    1
    35    15     9    1
    36    21    17   ar
    37    23    26    1
    38     3     4    1
    39    13    16    1
@<TRIPOS>MOLECULE
*****
 36 39 0 0 0
SMALL
GASTEIGER

@<TRIPOS>ATOM
      1 O         144.1291  139.7620  159.1549 O.2     1  UNL1       -0.2733
      2 C         143.7994  140.5973  157.9535 C.2     1  UNL1        0.2426
      3 N         143.3340  139.9403  156.6880 N.am    1  UNL1       -0.3018
      4 H         143.1175  140.4885  155.8994 H       1  UNL1        0.1495
      5 C         143.1982  138.4477  156.6239 C.3     1  UNL1        0.1035
      6 C         143.7868  137.3650  155.7688 C.3     1  UNL1        0.0933
      7 N         143.0063  136.3371  156.5332 N.3     1  UNL1       -0.2711
      8 C         142.4178  137.4198  157.3883 C.3     1  UNL1        0.0933
      9 C         142.8706  134.8446  156.4690 C.3     1  UNL1        0.0578
     10 C         141.8488  134.2226  155.5640 C.3     1  UNL1        0.0189
     11 C         141.7131  132.7301  155.4999 C.3     1  UNL1        0.0373
     12 C         142.5992  131.8597  156.3408 C.3     1  UNL1        0.1562
     13 O         141.7873  130.8086  155.6437 O.3     1  UNL1       -0.3780
     14 C         143.6210  132.4816  157.2458 C.3     1  UNL1        0.0373
     15 C         143.7567  133.9741  157.3099 C.3     1  UNL1        0.0189
     16 H         141.1510  131.2340  155.0478 H       1  UNL1        0.2109
     17 C         143.2033  130.6242  156.9396 C.ar    1  UNL1        0.2300
     18 N         144.3768  130.5798  157.8729 N.ar    1  UNL1       -0.2084
     19 C         144.6387  129.1443  158.2203 C.ar    1  UNL1        0.1424
     20 C         143.6271  128.3015  157.5018 C.ar    1  UNL1        0.2019
     21 O         142.7400  129.2161  156.7103 O.2     1  UNL1       -0.4328
     22 C         143.9351  142.0898  158.0175 C.3     1  UNL1        0.1759
     23 N         143.7752  142.8019  159.3281 N.am    1  UNL1       -0.2931
     24 C         142.4062  143.1635  159.8230 C.2     1  UNL1        0.2462
     25 O         141.1971  142.8131  159.0074 O.2     1  UNL1       -0.2701
     26 H         144.5688  143.0319  159.8633 H       1  UNL1        0.1502
     27 C         142.2463  143.8757  161.1335 C.ar    1  UNL1        0.0533
     28 C         141.0924  144.8108  161.3430 C.ar    1  UNL1        0.0045
     29 C         140.9326  145.5229  162.6535 C.ar    1  UNL1        0.0001
     30 C         141.9266  145.2998  163.7544 C.ar    1  UNL1        0.0039
     31 C         143.0805  144.3646  163.5449 C.ar    1  UNL1        0.0716
     32 C         143.2404  143.6525  162.2345 C.ar    1  UNL1        0.0084
     33 C         144.0746  144.1415  164.6459 C.3     1  UNL1        0.4186
     34 F         145.0686  143.9183  165.7468 F       1  UNL1       -0.1659
     35 F         144.2141  145.6247  164.8205 F       1  UNL1       -0.1659
     36 F         143.9350  142.6582  164.4713 F       1  UNL1       -0.1659
@<TRIPOS>BOND
     1     1     2    2
     2     2    22    1
     3    22    23    1
     4    23    24   am
     5    24    25    2
     6    24    27    1
     7    27    28   ar
     8    28    29   ar
     9    29    30   ar
    10    30    31   ar
    11    31    33    1
    12    33    34    1
    13    33    35    1
    14    33    36    1
    15    31    32   ar
    16     2     3   am
    17     3     5    1
    18     5     6    1
    19     6     7    1
    20     9     7    1
    21     9    10    1
    22    10    11    1
    23    11    12    1
    24    12    13    1
    25    12    17    1
    26    17    18   ar
    27    18    19   ar
    28    19    20   ar
    29    20    21   ar
    30    12    14    1
    31    14    15    1
    32     7     8    1
    33    32    27   ar
    34     8     5    1
    35    15     9    1
    36    21    17   ar
    37    23    26    1
    38     3     4    1
    39    13    16    1
@<TRIPOS>MOLECULE
*****
 36 39 0 0 0
SMALL
GASTEIGER

@<TRIPOS>ATOM
      1 O         143.8754  139.6371  159.2483 O.2     1  UNL1       -0.2733
      2 C         143.5251  140.4689  158.0503 C.2     1  UNL1        0.2426
      3 N         143.0932  139.8050  156.7765 N.am    1  UNL1       -0.3018
      4 H         142.8633  140.3510  155.9902 H       1  UNL1        0.1495
      5 C         143.0116  138.3091  156.7007 C.3     1  UNL1        0.1035
      6 C         143.7121  137.2476  155.9053 C.3     1  UNL1        0.0933
      7 N         142.8962  136.1936  156.5934 N.3     1  UNL1       -0.2711
      8 C         142.1957  137.2551  157.3887 C.3     1  UNL1        0.0933
      9 C         142.8146  134.6978  156.5176 C.3     1  UNL1        0.0578
     10 C         141.8143  134.0463  155.6093 C.3     1  UNL1        0.0189
     11 C         141.7328  132.5504  155.5334 C.3     1  UNL1        0.0373
     12 C         142.6515  131.7060  156.3659 C.3     1  UNL1        0.1562
     13 O         141.8768  130.6318  155.6618 O.3     1  UNL1       -0.3780
     14 C         143.6518  132.3575  157.2742 C.3     1  UNL1        0.0373
     15 C         143.7333  133.8533  157.3500 C.3     1  UNL1        0.0189
     16 H         141.2244  131.0384  155.0704 H       1  UNL1        0.2109
     17 C         143.3012  130.4886  156.9539 C.ar    1  UNL1        0.2300
     18 N         142.9961  129.0650  156.5927 N.ar    1  UNL1       -0.2084
     19 C         143.8765  128.1776  157.4219 C.ar    1  UNL1        0.1424
     20 C         144.7255  129.0527  158.2955 C.ar    1  UNL1        0.2019
     21 O         144.3700  130.4809  158.0063 O.2     1  UNL1       -0.4328
     22 C         143.6067  141.9648  158.1260 C.3     1  UNL1        0.1759
     23 N         142.9292  142.6971  159.2462 N.am    1  UNL1       -0.2931
     24 C         143.6834  143.0045  160.5057 C.2     1  UNL1        0.2462
     25 O         145.1152  142.5797  160.6452 O.2     1  UNL1       -0.2701
     26 H         141.9894  142.9760  159.1547 H       1  UNL1        0.1502
     27 C         143.0059  143.7369  161.6259 C.ar    1  UNL1        0.0533
     28 C         143.8227  144.3398  162.7301 C.ar    1  UNL1        0.0045
     29 C         143.1451  145.0721  163.8502 C.ar    1  UNL1        0.0001
     30 C         141.6508  145.2015  163.8661 C.ar    1  UNL1        0.0039
     31 C         140.8340  144.5985  162.7619 C.ar    1  UNL1        0.0716
     32 C         141.5116  143.8663  161.6418 C.ar    1  UNL1        0.0084
     33 C         139.3397  144.7279  162.7778 C.3     1  UNL1        0.4186
     34 F         137.8454  144.8573  162.7937 F       1  UNL1       -0.1659
     35 F         139.2821  144.2364  161.3618 F       1  UNL1       -0.1659
     36 F         139.3973  145.2195  164.1938 F       1  UNL1       -0.1659
@<TRIPOS>BOND
     1     1     2    2
     2     2    22    1
     3    22    23    1
     4    23    24   am
     5    24    25    2
     6    24    27    1
     7    27    28   ar
     8    28    29   ar
     9    29    30   ar
    10    30    31   ar
    11    31    33    1
    12    33    34    1
    13    33    35    1
    14    33    36    1
    15    31    32   ar
    16     2     3   am
    17     3     5    1
    18     5     6    1
    19     6     7    1
    20     9     7    1
    21     9    10    1
    22    10    11    1
    23    11    12    1
    24    12    13    1
    25    12    17    1
    26    17    18   ar
    27    18    19   ar
    28    19    20   ar
    29    20    21   ar
    30    12    14    1
    31    14    15    1
    32     7     8    1
    33    32    27   ar
    34     8     5    1
    35    15     9    1
    36    21    17   ar
    37    23    26    1
    38     3     4    1
    39    13    16    1
@<TRIPOS>MOLECULE
*****
 36 39 0 0 0
SMALL
GASTEIGER

@<TRIPOS>ATOM
      1 O         139.2580  140.4363  159.3667 O.2     1  UNL1       -0.2733
      2 C         140.0256  139.3692  158.6441 C.2     1  UNL1        0.2426
      3 N         140.9798  138.4910  159.3978 N.am    1  UNL1       -0.3018
      4 H         141.4836  137.7907  158.9235 H       1  UNL1        0.1495
      5 C         141.1665  138.6799  160.8742 C.3     1  UNL1        0.1035
      6 C         141.7976  139.7318  161.7374 C.3     1  UNL1        0.0933
      7 N         141.4306  138.9470  162.9620 N.3     1  UNL1       -0.2711
      8 C         140.7996  137.8951  162.0987 C.3     1  UNL1        0.0933
      9 C         141.6174  139.1359  164.4382 C.3     1  UNL1        0.0578
     10 C         142.8860  138.6825  165.0978 C.3     1  UNL1        0.0189
     11 C         143.0727  138.8714  166.5742 C.3     1  UNL1        0.0373
     12 C         141.9908  139.5136  167.3909 C.3     1  UNL1        0.1562
     13 O         143.0061  139.2518  168.4634 O.3     1  UNL1       -0.3780
     14 C         140.7222  139.9670  166.7313 C.3     1  UNL1        0.0373
     15 C         140.5354  139.7781  165.2550 C.3     1  UNL1        0.0189
     16 H         143.7856  138.8259  168.0737 H       1  UNL1        0.2109
     17 C         141.2615  140.0649  168.5801 C.ar    1  UNL1        0.2300
     18 N         141.3118  139.5188  169.9762 N.ar    1  UNL1       -0.2084
     19 C         140.4352  140.3755  170.8409 C.ar    1  UNL1        0.1424
     20 C         139.8431  141.4511  169.9791 C.ar    1  UNL1        0.2019
     21 O         140.3538  141.2591  168.5819 O.2     1  UNL1       -0.4328
     22 C         139.8389  139.1804  157.1679 C.3     1  UNL1        0.1759
     23 N         140.6492  138.1527  156.4348 N.am    1  UNL1       -0.2931
     24 C         139.9646  137.0102  155.7449 C.2     1  UNL1        0.2462
     25 O         138.4696  136.8953  155.7881 O.2     1  UNL1       -0.2701
     26 H         141.6304  138.2281  156.4065 H       1  UNL1        0.1502
     27 C         140.7749  135.9825  155.0119 C.ar    1  UNL1        0.0533
     28 C         140.5240  135.7292  153.5549 C.ar    1  UNL1        0.0045
     29 C         141.3343  134.7016  152.8219 C.ar    1  UNL1        0.0001
     30 C         142.3956  133.9273  153.5459 C.ar    1  UNL1        0.0039
     31 C         142.6465  134.1806  155.0029 C.ar    1  UNL1        0.0716
     32 C         141.8362  135.2083  155.7358 C.ar    1  UNL1        0.0084
     33 C         143.7078  133.4063  155.7268 C.3     1  UNL1        0.4186
     34 F         144.7691  132.6321  156.4508 F       1  UNL1       -0.1659
     35 F         144.0289  134.6175  156.5515 F       1  UNL1       -0.1659
     36 F         143.3867  132.1952  154.9022 F       1  UNL1       -0.1659
@<TRIPOS>BOND
     1     1     2    2
     2     2    22    1
     3    22    23    1
     4    23    24   am
     5    24    25    2
     6    24    27    1
     7    27    28   ar
     8    28    29   ar
     9    29    30   ar
    10    30    31   ar
    11    31    33    1
    12    33    34    1
    13    33    35    1
    14    33    36    1
    15    31    32   ar
    16     2     3   am
    17     3     5    1
    18     5     6    1
    19     6     7    1
    20     9     7    1
    21     9    10    1
    22    10    11    1
    23    11    12    1
    24    12    13    1
    25    12    17    1
    26    17    18   ar
    27    18    19   ar
    28    19    20   ar
    29    20    21   ar
    30    12    14    1
    31    14    15    1
    32     7     8    1
    33    32    27   ar
    34     8     5    1
    35    15     9    1
    36    21    17   ar
    37    23    26    1
    38     3     4    1
    39    13    16    1
@<TRIPOS>MOLECULE
*****
 36 39 0 0 0
SMALL
GASTEIGER

@<TRIPOS>ATOM
      1 O         138.9543  140.9582  159.5281 O.2     1  UNL1       -0.2733
      2 C         139.2987  139.5972  159.0000 C.2     1  UNL1        0.2426
      3 N         139.5652  138.4687  159.9516 N.am    1  UNL1       -0.3018
      4 H         139.7912  137.5754  159.6049 H       1  UNL1        0.1495
      5 C         139.4872  138.7013  161.4315 C.3     1  UNL1        0.1035
      6 C         140.4587  138.6163  162.5711 C.3     1  UNL1        0.0933
      7 N         139.3770  139.0302  163.5242 N.3     1  UNL1       -0.2711
      8 C         138.4054  139.1152  162.3846 C.3     1  UNL1        0.0933
      9 C         139.2990  139.2627  165.0040 C.3     1  UNL1        0.0578
     10 C         138.1332  138.7341  165.7859 C.3     1  UNL1        0.0189
     11 C         138.0553  138.9667  167.2658 C.3     1  UNL1        0.0373
     12 C         139.1432  139.7279  167.9637 C.3     1  UNL1        0.1562
     13 O         138.2471  139.4274  169.1284 O.3     1  UNL1       -0.3780
     14 C         140.3090  140.2565  167.1818 C.3     1  UNL1        0.0373
     15 C         140.3869  140.0239  165.7020 C.3     1  UNL1        0.0189
     16 H         137.4768  138.9236  168.8222 H       1  UNL1        0.2109
     17 C         139.9199  140.3847  169.0661 C.ar    1  UNL1        0.2300
     18 N         140.6836  141.6715  168.9611 N.ar    1  UNL1       -0.2084
     19 C         141.3049  141.9520  170.2972 C.ar    1  UNL1        0.1424
     20 C         140.9253  140.8387  171.2279 C.ar    1  UNL1        0.2019
     21 O         140.0693  139.8700  170.4671 O.2     1  UNL1       -0.4328
     22 C         139.3767  139.3645  157.5202 C.3     1  UNL1        0.1759
     23 N         138.1527  139.5313  156.6692 N.am    1  UNL1       -0.2931
     24 C         137.7974  140.8823  156.1230 C.2     1  UNL1        0.2462
     25 O         138.6660  142.0667  156.4277 O.2     1  UNL1       -0.2701
     26 H         137.5827  138.7540  156.4692 H       1  UNL1        0.1502
     27 C         136.5734  141.0490  155.2720 C.ar    1  UNL1        0.0533
     28 C         136.7121  141.3007  153.7998 C.ar    1  UNL1        0.0045
     29 C         135.4882  141.4674  152.9489 C.ar    1  UNL1        0.0001
     30 C         134.1255  141.3825  153.5702 C.ar    1  UNL1        0.0039
     31 C         133.9868  141.1308  155.0423 C.ar    1  UNL1        0.0716
     32 C         135.2108  140.9641  155.8933 C.ar    1  UNL1        0.0084
     33 C         132.6242  141.0459  155.6636 C.3     1  UNL1        0.4186
     34 F         131.2615  140.9609  156.2849 F       1  UNL1       -0.1659
     35 F         133.2142  140.3690  156.8652 F       1  UNL1       -0.1659
     36 F         132.0342  141.7227  154.4620 F       1  UNL1       -0.1659
@<TRIPOS>BOND
     1     1     2    2
     2     2    22    1
     3    22    23    1
     4    23    24   am
     5    24    25    2
     6    24    27    1
     7    27    28   ar
     8    28    29   ar
     9    29    30   ar
    10    30    31   ar
    11    31    33    1
    12    33    34    1
    13    33    35    1
    14    33    36    1
    15    31    32   ar
    16     2     3   am
    17     3     5    1
    18     5     6    1
    19     6     7    1
    20     9     7    1
    21     9    10    1
    22    10    11    1
    23    11    12    1
    24    12    13    1
    25    12    17    1
    26    17    18   ar
    27    18    19   ar
    28    19    20   ar
    29    20    21   ar
    30    12    14    1
    31    14    15    1
    32     7     8    1
    33    32    27   ar
    34     8     5    1
    35    15     9    1
    36    21    17   ar
    37    23    26    1
    38     3     4    1
    39    13    16    1
