@<TRIPOS>MOLECULE
*****
 32 36 0 0 0
SMALL
GASTEIGER

@<TRIPOS>ATOM
      1 C         140.2330  138.0916  163.8070 C.2     1  UNL1        0.2257
      2 O         141.0478  136.8380  163.6863 O.2     1  UNL1       -0.2749
      3 N         139.7204  138.7746  162.5738 N.am    1  UNL1       -0.2760
      4 C         140.0226  138.2040  161.2199 C.3     1  UNL1        0.1149
      5 C         139.5100  138.8869  159.9867 C.3     1  UNL1        0.1141
      6 N         138.6952  140.1405  160.1073 N.pl3   1  UNL1       -0.2846
      7 C         138.3931  140.7112  161.4612 C.3     1  UNL1        0.1141
      8 C         138.9057  140.0282  162.6944 C.3     1  UNL1        0.1149
      9 C         138.1827  140.8235  158.8741 C.ar    1  UNL1        0.1648
     10 N         137.1498  140.2816  157.9309 N.ar    1  UNL1       -0.2052
     11 C         136.9417  141.2915  156.8414 C.ar    1  UNL1        0.1702
     12 N         136.0457  141.2999  155.6385 N.ar    1  UNL1       -0.2246
     13 C         136.0539  142.4743  154.7055 C.ar    1  UNL1        0.1006
     14 C         136.9581  143.6403  154.9754 C.ar    1  UNL1        0.0213
     15 C         137.8542  143.6319  156.1783 C.ar    1  UNL1        0.0112
     16 C         137.8459  142.4575  157.1113 C.ar    1  UNL1        0.0679
     17 S         138.6129  142.1682  158.3676 S.2     1  UNL1       -0.0499
     18 C         141.0070  139.3618  165.9372 C.3     1  UNL1        0.0851
     19 C         140.7048  139.9324  167.2911 C.3     1  UNL1        0.0096
     20 C         139.3265  139.8036  167.8687 C.3     1  UNL1        0.0005
     21 C         138.2503  139.1041  167.0924 C.3     1  UNL1        0.0005
     22 C         138.5525  138.5335  165.7385 C.3     1  UNL1        0.0096
     23 C         139.9309  138.6623  165.1609 C.3     1  UNL1        0.0853
     24 N         142.6595  140.5093  164.2933 N.am    1  UNL1       -0.2959
     25 C         142.3853  139.4906  165.3596 C.2     1  UNL1        0.2231
     26 O         143.4894  138.6007  165.8484 O.2     1  UNL1       -0.2751
     27 H         141.9347  141.0934  163.9725 H       1  UNL1        0.1502
     28 C         144.0378  140.6382  163.7157 C.3     1  UNL1        0.1364
     29 C         145.4290  141.1515  163.4894 C.3     1  UNL1        0.0353
     30 C         144.5534  141.7899  164.5266 C.3     1  UNL1        0.0353
     31 N         143.9638  138.4242  161.6926 N.1     1  UNL1       -0.1943
     32 C         144.0008  139.5312  162.7041 C.1     1  UNL1        0.0896
@<TRIPOS>BOND
     1    31    32    3
     2    32    28    1
     3    28    24    1
     4    24    25   am
     5    25    26    2
     6    18    25    1
     7    18    19    1
     8    19    20    1
     9    20    21    1
    10    21    22    1
    11    22    23    1
    12    23     1    1
    13     1     2    2
    14     1     3   am
    15     3     4    1
    16     4     5    1
    17     5     6    1
    18     6     9    1
    19     9    10   ar
    20    10    11   ar
    21    11    12   ar
    22    12    13   ar
    23    13    14   ar
    24    14    15   ar
    25    15    16   ar
    26    16    17   ar
    27     6     7    1
    28     7     8    1
    29    28    29    1
    30    29    30    1
    31    30    28    1
    32    23    18    1
    33     8     3    1
    34    17     9   ar
    35    16    11   ar
    36    24    27    1
@<TRIPOS>MOLECULE
*****
 32 36 0 0 0
SMALL
GASTEIGER

@<TRIPOS>ATOM
      1 C         141.3730  139.5021  165.2794 C.2     1  UNL1        0.2257
      2 O         142.6862  139.1393  165.9069 O.2     1  UNL1       -0.2749
      3 N         141.3406  140.3682  164.0551 N.am    1  UNL1       -0.2760
      4 C         142.6214  140.8714  163.4583 C.3     1  UNL1        0.1149
      5 C         142.5890  141.7375  162.2340 C.3     1  UNL1        0.1141
      6 N         141.2758  142.1003  161.6065 N.pl3   1  UNL1       -0.2846
      7 C         139.9950  141.5970  162.2033 C.3     1  UNL1        0.1141
      8 C         140.0274  140.7309  163.4276 C.3     1  UNL1        0.1149
      9 C         141.2434  142.9663  160.3822 C.ar    1  UNL1        0.1648
     10 N         142.2181  144.0561  160.0470 N.ar    1  UNL1       -0.2052
     11 C         141.8077  144.6579  158.7358 C.ar    1  UNL1        0.1702
     12 N         142.3939  145.7668  157.9132 N.ar    1  UNL1       -0.2246
     13 C         141.7516  146.1579  156.6153 C.ar    1  UNL1        0.1006
     14 C         140.5232  145.4402  156.1401 C.ar    1  UNL1        0.0213
     15 C         139.9370  144.3313  156.9627 C.ar    1  UNL1        0.0112
     16 C         140.5793  143.9402  158.2606 C.ar    1  UNL1        0.0679
     17 S         140.2306  142.8947  159.2781 S.2     1  UNL1       -0.0499
     18 C         139.4962  139.6912  167.0659 C.3     1  UNL1        0.0851
     19 C         138.2153  139.1879  167.6627 C.3     1  UNL1        0.0096
     20 C         137.5305  137.9922  167.0698 C.3     1  UNL1        0.0005
     21 C         138.1266  137.2999  165.8801 C.3     1  UNL1        0.0005
     22 C         139.4074  137.8032  165.2833 C.3     1  UNL1        0.0096
     23 C         140.0922  138.9988  165.8762 C.3     1  UNL1        0.0853
     24 N         140.8808  140.7715  168.9805 N.am    1  UNL1       -0.2959
     25 C         140.1809  140.8868  167.6588 C.2     1  UNL1        0.2231
     26 O         140.1658  142.1977  166.9300 O.2     1  UNL1       -0.2751
     27 H         140.8907  139.9111  169.4589 H       1  UNL1        0.1502
     28 C         141.5655  141.9672  169.5734 C.3     1  UNL1        0.1364
     29 C         142.6444  142.9589  169.8935 C.3     1  UNL1        0.0353
     30 C         142.9382  141.7952  168.9938 C.3     1  UNL1        0.0353
     31 N         139.2956  143.1415  171.1445 N.1     1  UNL1       -0.1943
     32 C         140.4305  142.5544  170.3590 C.1     1  UNL1        0.0896
@<TRIPOS>BOND
     1    31    32    3
     2    32    28    1
     3    28    24    1
     4    24    25   am
     5    25    26    2
     6    18    25    1
     7    18    19    1
     8    19    20    1
     9    20    21    1
    10    21    22    1
    11    22    23    1
    12    23     1    1
    13     1     2    2
    14     1     3   am
    15     3     4    1
    16     4     5    1
    17     5     6    1
    18     6     9    1
    19     9    10   ar
    20    10    11   ar
    21    11    12   ar
    22    12    13   ar
    23    13    14   ar
    24    14    15   ar
    25    15    16   ar
    26    16    17   ar
    27     6     7    1
    28     7     8    1
    29    28    29    1
    30    29    30    1
    31    30    28    1
    32    23    18    1
    33     8     3    1
    34    17     9   ar
    35    16    11   ar
    36    24    27    1
@<TRIPOS>MOLECULE
*****
 32 36 0 0 0
SMALL
GASTEIGER

@<TRIPOS>ATOM
      1 C         138.0064  140.8874  163.4290 C.2     1  UNL1        0.2257
      2 O         136.8784  141.8548  163.2247 O.2     1  UNL1       -0.2749
      3 N         138.6736  140.2525  162.2451 N.am    1  UNL1       -0.2760
      4 C         138.2129  140.5850  160.8569 C.3     1  UNL1        0.1149
      5 C         138.8801  139.9500  159.6730 C.3     1  UNL1        0.1141
      6 N         140.0081  138.9826  159.8773 N.pl3   1  UNL1       -0.2846
      7 C         140.4688  138.6501  161.2655 C.3     1  UNL1        0.1141
      8 C         139.8015  139.2851  162.4494 C.3     1  UNL1        0.1149
      9 C         140.6753  138.3477  158.6934 C.ar    1  UNL1        0.1648
     10 N         142.1359  138.0291  158.5703 N.ar    1  UNL1       -0.2052
     11 C         142.3624  137.4043  157.2255 C.ar    1  UNL1        0.1702
     12 N         143.6006  136.8882  156.5543 N.ar    1  UNL1       -0.2246
     13 C         143.5181  136.3046  155.1750 C.ar    1  UNL1        0.1006
     14 C         142.1975  136.2371  154.4669 C.ar    1  UNL1        0.0213
     15 C         140.9593  136.7533  155.1381 C.ar    1  UNL1        0.0112
     16 C         141.0418  137.3368  156.5174 C.ar    1  UNL1        0.0679
     17 S         139.9991  137.9199  157.4246 S.2     1  UNL1       -0.0499
     18 C         139.4191  141.4687  165.5305 C.3     1  UNL1        0.0851
     19 C         139.8798  141.1361  166.9188 C.3     1  UNL1        0.0096
     20 C         139.3885  139.8899  167.5937 C.3     1  UNL1        0.0005
     21 C         138.4365  138.9762  166.8804 C.3     1  UNL1        0.0005
     22 C         137.9758  139.3087  165.4922 C.3     1  UNL1        0.0096
     23 C         138.4671  140.5549  164.8172 C.3     1  UNL1        0.0853
     24 N         140.9646  142.6261  163.7922 N.am    1  UNL1       -0.2959
     25 C         139.9104  142.7148  164.8555 C.2     1  UNL1        0.2231
     26 O         139.3475  144.0498  165.2440 O.2     1  UNL1       -0.2751
     27 H         141.3341  141.7498  163.5372 H       1  UNL1        0.1502
     28 C         141.4559  143.8722  163.1172 C.3     1  UNL1        0.1364
     29 C         142.2986  145.0783  162.8248 C.3     1  UNL1        0.0353
     30 C         142.6382  144.1893  163.9843 C.3     1  UNL1        0.0353
     31 N         139.4327  144.1037  160.9143 N.1     1  UNL1       -0.1943
     32 C         140.4443  143.9880  162.0157 C.1     1  UNL1        0.0896
@<TRIPOS>BOND
     1    31    32    3
     2    32    28    1
     3    28    24    1
     4    24    25   am
     5    25    26    2
     6    18    25    1
     7    18    19    1
     8    19    20    1
     9    20    21    1
    10    21    22    1
    11    22    23    1
    12    23     1    1
    13     1     2    2
    14     1     3   am
    15     3     4    1
    16     4     5    1
    17     5     6    1
    18     6     9    1
    19     9    10   ar
    20    10    11   ar
    21    11    12   ar
    22    12    13   ar
    23    13    14   ar
    24    14    15   ar
    25    15    16   ar
    26    16    17   ar
    27     6     7    1
    28     7     8    1
    29    28    29    1
    30    29    30    1
    31    30    28    1
    32    23    18    1
    33     8     3    1
    34    17     9   ar
    35    16    11   ar
    36    24    27    1
@<TRIPOS>MOLECULE
*****
 32 36 0 0 0
SMALL
GASTEIGER

@<TRIPOS>ATOM
      1 C         140.7940  142.0955  163.1651 C.2     1  UNL1        0.2257
      2 O         139.4131  142.5891  163.4802 O.2     1  UNL1       -0.2749
      3 N         141.0125  141.1657  162.0085 N.am    1  UNL1       -0.2760
      4 C         139.8500  140.7294  161.1670 C.3     1  UNL1        0.1149
      5 C         140.0685  139.7995  160.0105 C.3     1  UNL1        0.1141
      6 N         141.4494  139.3060  159.6954 N.pl3   1  UNL1       -0.2846
      7 C         142.6119  139.7423  160.5369 C.3     1  UNL1        0.1141
      8 C         142.3935  140.6721  161.6935 C.3     1  UNL1        0.1149
      9 C         141.6679  138.3761  158.5388 C.ar    1  UNL1        0.1648
     10 N         142.9371  137.6402  158.2267 N.ar    1  UNL1       -0.2052
     11 C         142.7092  136.8282  156.9863 C.ar    1  UNL1        0.1702
     12 N         143.6034  135.9060  156.2119 N.ar    1  UNL1       -0.2246
     13 C         143.0875  135.2177  154.9831 C.ar    1  UNL1        0.1006
     14 C         141.6773  135.4517  154.5286 C.ar    1  UNL1        0.0213
     15 C         140.7830  136.3740  155.3029 C.ar    1  UNL1        0.0112
     16 C         141.2990  137.0622  156.5318 C.ar    1  UNL1        0.0679
     17 S         140.6554  138.0189  157.4913 S.2     1  UNL1       -0.0499
     18 C         142.2281  141.8567  165.3183 C.3     1  UNL1        0.0851
     19 C         143.3907  142.2930  166.1599 C.3     1  UNL1        0.0096
     20 C         144.2816  143.4044  165.6897 C.3     1  UNL1        0.0005
     21 C         144.0100  144.0795  164.3780 C.3     1  UNL1        0.0005
     22 C         142.8475  143.6432  163.5365 C.3     1  UNL1        0.0096
     23 C         141.9565  142.5318  164.0066 C.3     1  UNL1        0.0853
     24 N         139.9575  141.0517  166.2911 N.am    1  UNL1       -0.2959
     25 C         141.3372  140.7453  165.7885 C.2     1  UNL1        0.2231
     26 O         141.8260  139.3276  165.7560 O.2     1  UNL1       -0.2751
     27 H         139.6367  141.9822  166.3124 H       1  UNL1        0.1502
     28 C         139.0666  139.9403  166.7613 C.3     1  UNL1        0.1364
     29 C         138.0453  138.8422  166.7272 C.3     1  UNL1        0.0353
     30 C         138.3818  139.5927  165.4728 C.3     1  UNL1        0.0353
     31 N         139.8175  139.8637  169.6648 N.1     1  UNL1       -0.1943
     32 C         139.4420  139.9020  168.2130 C.1     1  UNL1        0.0896
@<TRIPOS>BOND
     1    31    32    3
     2    32    28    1
     3    28    24    1
     4    24    25   am
     5    25    26    2
     6    18    25    1
     7    18    19    1
     8    19    20    1
     9    20    21    1
    10    21    22    1
    11    22    23    1
    12    23     1    1
    13     1     2    2
    14     1     3   am
    15     3     4    1
    16     4     5    1
    17     5     6    1
    18     6     9    1
    19     9    10   ar
    20    10    11   ar
    21    11    12   ar
    22    12    13   ar
    23    13    14   ar
    24    14    15   ar
    25    15    16   ar
    26    16    17   ar
    27     6     7    1
    28     7     8    1
    29    28    29    1
    30    29    30    1
    31    30    28    1
    32    23    18    1
    33     8     3    1
    34    17     9   ar
    35    16    11   ar
    36    24    27    1
@<TRIPOS>MOLECULE
*****
 32 36 0 0 0
SMALL
GASTEIGER

@<TRIPOS>ATOM
      1 C         138.7431  140.3519  164.2698 C.2     1  UNL1        0.2257
      2 O         138.1481  139.3651  165.2301 O.2     1  UNL1       -0.2749
      3 N         139.2858  139.8826  162.9524 N.am    1  UNL1       -0.2760
      4 C         139.2334  138.4267  162.5954 C.3     1  UNL1        0.1149
      5 C         139.7761  137.9575  161.2781 C.3     1  UNL1        0.1141
      6 N         140.3711  138.9442  160.3178 N.pl3   1  UNL1       -0.2846
      7 C         140.4234  140.4001  160.6747 C.3     1  UNL1        0.1141
      8 C         139.8808  140.8693  161.9921 C.3     1  UNL1        0.1149
      9 C         140.9137  138.4750  159.0004 C.ar    1  UNL1        0.1648
     10 N         142.3505  138.1683  158.6975 N.ar    1  UNL1       -0.2052
     11 C         142.4396  137.7338  157.2646 C.ar    1  UNL1        0.1702
     12 N         143.6004  137.3084  156.4152 N.ar    1  UNL1       -0.2246
     13 C         143.3795  136.9211  154.9830 C.ar    1  UNL1        0.1006
     14 C         141.9979  136.9593  154.4003 C.ar    1  UNL1        0.0213
     15 C         140.8371  137.3847  155.2497 C.ar    1  UNL1        0.0112
     16 C         141.0580  137.7720  156.6819 C.ar    1  UNL1        0.0679
     17 S         140.1149  138.2300  157.7547 S.2     1  UNL1       -0.0499
     18 C         140.0324  142.3831  165.2503 C.3     1  UNL1        0.0851
     19 C         140.0847  143.8391  165.6073 C.3     1  UNL1        0.0096
     20 C         138.9001  144.7197  165.3407 C.3     1  UNL1        0.0005
     21 C         137.6631  144.1444  164.7171 C.3     1  UNL1        0.0005
     22 C         137.6108  142.6885  164.3601 C.3     1  UNL1        0.0096
     23 C         138.7955  141.8078  164.6267 C.3     1  UNL1        0.0853
     24 N         141.0508  140.2424  166.3133 N.am    1  UNL1       -0.2959
     25 C         141.2171  141.5025  165.5169 C.2     1  UNL1        0.2231
     26 O         142.5681  141.8821  164.9871 O.2     1  UNL1       -0.2751
     27 H         140.1641  139.9932  166.6611 H       1  UNL1        0.1502
     28 C         142.2354  139.3618  166.5799 C.3     1  UNL1        0.1364
     29 C         143.2901  138.3160  166.3699 C.3     1  UNL1        0.0353
     30 C         142.2726  138.5806  165.3000 C.3     1  UNL1        0.0353
     31 N         142.9839  140.3125  169.3251 N.1     1  UNL1       -0.1943
     32 C         142.6096  139.8371  167.9526 C.1     1  UNL1        0.0896
@<TRIPOS>BOND
     1    31    32    3
     2    32    28    1
     3    28    24    1
     4    24    25   am
     5    25    26    2
     6    18    25    1
     7    18    19    1
     8    19    20    1
     9    20    21    1
    10    21    22    1
    11    22    23    1
    12    23     1    1
    13     1     2    2
    14     1     3   am
    15     3     4    1
    16     4     5    1
    17     5     6    1
    18     6     9    1
    19     9    10   ar
    20    10    11   ar
    21    11    12   ar
    22    12    13   ar
    23    13    14   ar
    24    14    15   ar
    25    15    16   ar
    26    16    17   ar
    27     6     7    1
    28     7     8    1
    29    28    29    1
    30    29    30    1
    31    30    28    1
    32    23    18    1
    33     8     3    1
    34    17     9   ar
    35    16    11   ar
    36    24    27    1
@<TRIPOS>MOLECULE
*****
 32 36 0 0 0
SMALL
GASTEIGER

@<TRIPOS>ATOM
      1 C         139.8393  142.9940  164.6280 C.2     1  UNL1        0.2257
      2 O         139.8495  143.9880  165.7513 O.2     1  UNL1       -0.2749
      3 N         139.9913  143.4619  163.2110 N.am    1  UNL1       -0.2760
      4 C         140.1535  144.9238  162.9172 C.3     1  UNL1        0.1149
      5 C         140.3055  145.3917  161.5002 C.3     1  UNL1        0.1141
      6 N         140.2953  144.3976  160.3769 N.pl3   1  UNL1       -0.2846
      7 C         140.1331  142.9357  160.6707 C.3     1  UNL1        0.1141
      8 C         139.9811  142.4678  162.0878 C.3     1  UNL1        0.1149
      9 C         140.4473  144.8655  158.9599 C.ar    1  UNL1        0.1648
     10 N         139.7178  146.0135  158.3274 N.ar    1  UNL1       -0.2052
     11 C         140.1752  146.1250  156.9031 C.ar    1  UNL1        0.1702
     12 N         139.8007  147.0697  155.7998 N.ar    1  UNL1       -0.2246
     13 C         140.4384  146.9354  154.4489 C.ar    1  UNL1        0.1006
     14 C         141.4506  145.8565  154.2012 C.ar    1  UNL1        0.0213
     15 C         141.8251  144.9118  155.3045 C.ar    1  UNL1        0.0112
     16 C         141.1873  145.0461  156.6555 C.ar    1  UNL1        0.0679
     17 S         141.3555  144.2677  157.9266 S.2     1  UNL1       -0.0499
     18 C         140.8865  140.6541  165.0502 C.3     1  UNL1        0.0851
     19 C         140.7243  139.1921  165.3440 C.3     1  UNL1        0.0096
     20 C         139.3526  138.6081  165.5094 C.3     1  UNL1        0.0005
     21 C         138.1431  139.4860  165.3810 C.3     1  UNL1        0.0005
     22 C         138.3053  140.9479  165.0872 C.3     1  UNL1        0.0096
     23 C         139.6771  141.5320  164.9218 C.3     1  UNL1        0.0853
     24 N         143.0131  141.0291  163.6056 N.am    1  UNL1       -0.2959
     25 C         142.2582  141.2382  164.8848 C.2     1  UNL1        0.2231
     26 O         142.8749  142.0312  165.9986 O.2     1  UNL1       -0.2751
     27 H         142.6083  140.5085  162.8746 H       1  UNL1        0.1502
     28 C         144.3848  141.6131  163.4403 C.3     1  UNL1        0.1364
     29 C         145.8777  141.7447  163.5029 C.3     1  UNL1        0.0353
     30 C         145.2102  140.5133  164.0393 C.3     1  UNL1        0.0353
     31 N         143.6867  144.2186  162.1272 N.1     1  UNL1       -0.1943
     32 C         144.0357  142.9159  162.7837 C.1     1  UNL1        0.0896
@<TRIPOS>BOND
     1    31    32    3
     2    32    28    1
     3    28    24    1
     4    24    25   am
     5    25    26    2
     6    18    25    1
     7    18    19    1
     8    19    20    1
     9    20    21    1
    10    21    22    1
    11    22    23    1
    12    23     1    1
    13     1     2    2
    14     1     3   am
    15     3     4    1
    16     4     5    1
    17     5     6    1
    18     6     9    1
    19     9    10   ar
    20    10    11   ar
    21    11    12   ar
    22    12    13   ar
    23    13    14   ar
    24    14    15   ar
    25    15    16   ar
    26    16    17   ar
    27     6     7    1
    28     7     8    1
    29    28    29    1
    30    29    30    1
    31    30    28    1
    32    23    18    1
    33     8     3    1
    34    17     9   ar
    35    16    11   ar
    36    24    27    1
@<TRIPOS>MOLECULE
*****
 32 36 0 0 0
SMALL
GASTEIGER

@<TRIPOS>ATOM
      1 C         142.0703  139.4043  165.5996 C.2     1  UNL1        0.2257
      2 O         143.1037  139.4663  166.6850 O.2     1  UNL1       -0.2749
      3 N         142.4530  139.7083  164.1814 N.am    1  UNL1       -0.2760
      4 C         143.8691  140.0743  163.8487 C.3     1  UNL1        0.1149
      5 C         144.2518  140.3783  162.4306 C.3     1  UNL1        0.1141
      6 N         143.2184  140.3162  161.3451 N.pl3   1  UNL1       -0.2846
      7 C         141.8023  139.9502  161.6778 C.3     1  UNL1        0.1141
      8 C         141.4197  139.6462  163.0960 C.3     1  UNL1        0.1149
      9 C         143.6011  140.6202  159.9270 C.ar    1  UNL1        0.1648
     10 N         144.1035  139.6307  158.9179 N.ar    1  UNL1       -0.2052
     11 C         144.3615  140.3660  157.6362 C.ar    1  UNL1        0.1702
     12 N         144.8644  139.9072  156.2996 N.ar    1  UNL1       -0.2246
     13 C         145.0244  140.8925  155.1800 C.ar    1  UNL1        0.1006
     14 C         144.6813  142.3366  155.3969 C.ar    1  UNL1        0.0213
     15 C         144.1784  142.7953  156.7335 C.ar    1  UNL1        0.0112
     16 C         144.0185  141.8100  157.8532 C.ar    1  UNL1        0.0679
     17 S         143.5486  141.9671  159.2690 S.2     1  UNL1       -0.0499
     18 C         139.8958  139.8296  166.9562 C.3     1  UNL1        0.0851
     19 C         138.4796  139.4635  167.2889 C.3     1  UNL1        0.0096
     20 C         137.8221  138.3060  166.5976 C.3     1  UNL1        0.0005
     21 C         138.5806  137.5146  165.5737 C.3     1  UNL1        0.0005
     22 C         139.9966  137.8807  165.2410 C.3     1  UNL1        0.0096
     23 C         140.6543  139.0382  165.9323 C.3     1  UNL1        0.0853
     24 N         141.1176  140.8149  169.0265 N.am    1  UNL1       -0.2959
     25 C         140.5533  140.9871  167.6474 C.2     1  UNL1        0.2231
     26 O         140.6466  142.3167  166.9595 O.2     1  UNL1       -0.2751
     27 H         141.0564  139.9421  169.4780 H       1  UNL1        0.1502
     28 C         141.7752  141.9723  169.7177 C.3     1  UNL1        0.1364
     29 C         142.8473  142.9155  170.1773 C.3     1  UNL1        0.0353
     30 C         143.1969  141.7572  169.2908 C.3     1  UNL1        0.0353
     31 N         139.3885  143.2067  171.0518 N.1     1  UNL1       -0.1943
     32 C         140.5818  142.5895  170.3848 C.1     1  UNL1        0.0896
@<TRIPOS>BOND
     1    31    32    3
     2    32    28    1
     3    28    24    1
     4    24    25   am
     5    25    26    2
     6    18    25    1
     7    18    19    1
     8    19    20    1
     9    20    21    1
    10    21    22    1
    11    22    23    1
    12    23     1    1
    13     1     2    2
    14     1     3   am
    15     3     4    1
    16     4     5    1
    17     5     6    1
    18     6     9    1
    19     9    10   ar
    20    10    11   ar
    21    11    12   ar
    22    12    13   ar
    23    13    14   ar
    24    14    15   ar
    25    15    16   ar
    26    16    17   ar
    27     6     7    1
    28     7     8    1
    29    28    29    1
    30    29    30    1
    31    30    28    1
    32    23    18    1
    33     8     3    1
    34    17     9   ar
    35    16    11   ar
    36    24    27    1
@<TRIPOS>MOLECULE
*****
 32 36 0 0 0
SMALL
GASTEIGER

@<TRIPOS>ATOM
      1 C         142.5562  141.7109  163.6211 C.2     1  UNL1        0.2257
      2 O         143.7746  141.5700  164.4845 O.2     1  UNL1       -0.2749
      3 N         142.4046  140.8622  162.3936 N.am    1  UNL1       -0.2760
      4 C         143.4714  139.8726  162.0295 C.3     1  UNL1        0.1149
      5 C         143.3198  139.0239  160.8020 C.3     1  UNL1        0.1141
      6 N         142.1014  139.1648  159.9386 N.pl3   1  UNL1       -0.2846
      7 C         141.0346  140.1544  160.3026 C.3     1  UNL1        0.1141
      8 C         141.1862  141.0031  161.5301 C.3     1  UNL1        0.1149
      9 C         141.9498  138.3161  158.7111 C.ar    1  UNL1        0.1648
     10 N         142.9846  137.3879  158.1476 N.ar    1  UNL1       -0.2052
     11 C         142.4111  136.7447  156.9199 C.ar    1  UNL1        0.1702
     12 N         142.9745  135.7444  155.9545 N.ar    1  UNL1       -0.2246
     13 C         142.1486  135.2747  154.7939 C.ar    1  UNL1        0.1006
     14 C         140.7592  135.8054  154.5985 C.ar    1  UNL1        0.0213
     15 C         140.1959  136.8057  155.5639 C.ar    1  UNL1        0.0112
     16 C         141.0218  137.2754  156.7245 C.ar    1  UNL1        0.0679
     17 S         140.7367  138.2465  157.8316 S.2     1  UNL1       -0.0499
     18 C         140.2872  142.2550  164.7638 C.3     1  UNL1        0.0851
     19 C         139.2204  143.2446  165.1278 C.3     1  UNL1        0.0096
     20 C         139.3557  144.6798  164.7132 C.3     1  UNL1        0.0005
     21 C         140.5579  145.1253  163.9345 C.3     1  UNL1        0.0005
     22 C         141.6247  144.1357  163.5704 C.3     1  UNL1        0.0096
     23 C         141.4894  142.7005  163.9851 C.3     1  UNL1        0.0853
     24 N         139.1669  139.9278  164.4827 N.am    1  UNL1       -0.2959
     25 C         140.1519  140.8198  165.1784 C.2     1  UNL1        0.2231
     26 O         141.0017  140.2767  166.2888 O.2     1  UNL1       -0.2751
     27 H         138.6092  140.2843  163.7540 H       1  UNL1        0.1502
     28 C         139.0315  138.4927  164.8974 C.3     1  UNL1        0.1364
     29 C         138.5917  137.2838  165.6690 C.3     1  UNL1        0.0353
     30 C         138.1077  138.6460  166.0691 C.3     1  UNL1        0.0353
     31 N         140.7853  137.1890  162.8420 N.1     1  UNL1       -0.1943
     32 C         139.9084  137.8408  163.8696 C.1     1  UNL1        0.0896
@<TRIPOS>BOND
     1    31    32    3
     2    32    28    1
     3    28    24    1
     4    24    25   am
     5    25    26    2
     6    18    25    1
     7    18    19    1
     8    19    20    1
     9    20    21    1
    10    21    22    1
    11    22    23    1
    12    23     1    1
    13     1     2    2
    14     1     3   am
    15     3     4    1
    16     4     5    1
    17     5     6    1
    18     6     9    1
    19     9    10   ar
    20    10    11   ar
    21    11    12   ar
    22    12    13   ar
    23    13    14   ar
    24    14    15   ar
    25    15    16   ar
    26    16    17   ar
    27     6     7    1
    28     7     8    1
    29    28    29    1
    30    29    30    1
    31    30    28    1
    32    23    18    1
    33     8     3    1
    34    17     9   ar
    35    16    11   ar
    36    24    27    1
@<TRIPOS>MOLECULE
*****
 32 36 0 0 0
SMALL
GASTEIGER

@<TRIPOS>ATOM
      1 C         138.6279  140.4122  164.0477 C.2     1  UNL1        0.2257
      2 O         138.1017  139.4405  165.0620 O.2     1  UNL1       -0.2749
      3 N         139.0084  139.9340  162.6778 N.am    1  UNL1       -0.2760
      4 C         138.8627  138.4841  162.3222 C.3     1  UNL1        0.1149
      5 C         139.2432  138.0059  160.9524 C.3     1  UNL1        0.1141
      6 N         139.7694  138.9776  159.9381 N.pl3   1  UNL1       -0.2846
      7 C         139.9150  140.4275  160.2936 C.3     1  UNL1        0.1141
      8 C         139.5345  140.9057  161.6635 C.3     1  UNL1        0.1149
      9 C         140.1499  138.4994  158.5682 C.ar    1  UNL1        0.1648
     10 N         139.2259  138.3599  157.3948 N.ar    1  UNL1       -0.2052
     11 C         140.0261  137.8510  156.2326 C.ar    1  UNL1        0.1702
     12 N         139.6463  137.5243  154.8187 N.ar    1  UNL1       -0.2246
     13 C         140.6851  137.0227  153.8600 C.ar    1  UNL1        0.1006
     14 C         142.1037  136.8477  154.3151 C.ar    1  UNL1        0.0213
     15 C         142.4834  137.1743  155.7289 C.ar    1  UNL1        0.0112
     16 C         141.4446  137.6760  156.6877 C.ar    1  UNL1        0.0679
     17 S         141.5211  138.0767  158.1312 S.2     1  UNL1       -0.0499
     18 C         140.0923  142.3864  164.8891 C.3     1  UNL1        0.0851
     19 C         140.2379  143.8364  165.2447 C.3     1  UNL1        0.0096
     20 C         139.0649  144.7621  165.1143 C.3     1  UNL1        0.0005
     21 C         137.7461  144.2378  164.6284 C.3     1  UNL1        0.0005
     22 C         137.6005  142.7879  164.2729 C.3     1  UNL1        0.0096
     23 C         138.7736  141.8621  164.4032 C.3     1  UNL1        0.0853
     24 N         142.2322  141.3106  163.8826 N.am    1  UNL1       -0.2959
     25 C         141.2653  141.4607  165.0195 C.2     1  UNL1        0.2231
     26 O         141.4715  140.6852  166.2868 O.2     1  UNL1       -0.2751
     27 H         142.0969  141.8196  163.0508 H       1  UNL1        0.1502
     28 C         143.4053  140.3849  164.0130 C.3     1  UNL1        0.1364
     29 C         144.7927  139.9016  164.3158 C.3     1  UNL1        0.0353
     30 C         144.4297  141.3373  164.5547 C.3     1  UNL1        0.0353
     31 N         142.1713  137.8371  163.0199 N.1     1  UNL1       -0.1943
     32 C         142.7883  139.1110  163.5164 C.1     1  UNL1        0.0896
@<TRIPOS>BOND
     1    31    32    3
     2    32    28    1
     3    28    24    1
     4    24    25   am
     5    25    26    2
     6    18    25    1
     7    18    19    1
     8    19    20    1
     9    20    21    1
    10    21    22    1
    11    22    23    1
    12    23     1    1
    13     1     2    2
    14     1     3   am
    15     3     4    1
    16     4     5    1
    17     5     6    1
    18     6     9    1
    19     9    10   ar
    20    10    11   ar
    21    11    12   ar
    22    12    13   ar
    23    13    14   ar
    24    14    15   ar
    25    15    16   ar
    26    16    17   ar
    27     6     7    1
    28     7     8    1
    29    28    29    1
    30    29    30    1
    31    30    28    1
    32    23    18    1
    33     8     3    1
    34    17     9   ar
    35    16    11   ar
    36    24    27    1
