@<TRIPOS>MOLECULE
*****
 35 38 0 0 0
SMALL
GASTEIGER

@<TRIPOS>ATOM
      1 C         139.5497  141.2456  160.1829 C.ar    1  UNL1        0.1233
      2 C         139.6499  141.3867  161.6728 C.ar    1  UNL1        0.1181
      3 N         138.7474  142.5084  162.0939 N.ar    1  UNL1       -0.2208
      4 N         138.0894  143.0605  160.8642 N.ar    1  UNL1       -0.0633
      5 N         138.5853  142.2801  159.6831 N.ar    1  UNL1       -0.1287
      6 C         142.5071  139.3531  158.3329 C.ar    1  UNL1        0.1547
      7 C         141.7719  140.3531  159.1752 C.ar    1  UNL1        0.0400
      8 C         140.2849  140.2456  159.3405 C.ar    1  UNL1        0.0241
      9 C         139.5331  139.1382  158.6634 C.ar    1  UNL1        0.0033
     10 C         140.2683  138.1383  157.8211 C.ar    1  UNL1        0.0207
     11 C         141.7553  138.2458  157.6558 C.ar    1  UNL1        0.0994
     12 N         142.4905  137.2457  156.8134 N.ar    1  UNL1       -0.2839
     13 C         143.0913  137.5023  155.4631 C.ar    1  UNL1        0.1826
     14 N         143.7260  136.2287  154.9887 N.ar    1  UNL1       -0.2280
     15 C         143.5176  135.1850  156.0457 C.ar    1  UNL1        0.0786
     16 C         143.9898  133.7626  155.9856 C.3     1  UNL1        0.0538
     17 C         142.7540  135.8136  157.1735 C.ar    1  UNL1        0.0963
     18 C         144.5812  140.5935  157.3791 C.3     1  UNL1        0.2525
     19 O         143.9941  139.4606  158.1676 O.3     1  UNL1       -0.4700
     20 C         138.5394  142.9929  163.4982 C.3     1  UNL1        0.2138
     21 C         139.5460  142.6661  164.5612 C.2     1  UNL1        0.2510
     22 O         140.6706  143.6168  164.8468 O.2     1  UNL1       -0.2727
     23 N         139.4280  141.3888  165.3386 N.am    1  UNL1       -0.2660
     24 C         140.4346  141.0620  166.4016 C.3     1  UNL1        0.1205
     25 C         140.2203  141.5358  167.8086 C.ar    1  UNL1       -0.0023
     26 C         140.5945  142.9365  168.1935 C.ar    1  UNL1       -0.0026
     27 C         140.3802  143.4103  169.6005 C.ar    1  UNL1       -0.0003
     28 C         139.7917  142.4835  170.6226 C.ar    1  UNL1       -0.0000
     29 C         139.4175  141.0828  170.2377 C.ar    1  UNL1       -0.0003
     30 C         139.6319  140.6090  168.8307 C.ar    1  UNL1       -0.0026
     31 C         138.3034  140.4381  165.0530 C.3     1  UNL1        0.1976
     32 C         138.4634  138.9764  165.3487 C.3     1  UNL1        0.4157
     33 F         138.6236  137.5145  165.6444 F       1  UNL1       -0.1682
     34 F         137.5882  139.1250  166.5578 F       1  UNL1       -0.1682
     35 F         139.3387  138.8276  164.1396 F       1  UNL1       -0.1682
@<TRIPOS>BOND
     1    18    19    1
     2    19     6    1
     3     6     7   ar
     4     7     8   ar
     5     8     1    1
     6     1     2   ar
     7     2     3   ar
     8     3    20    1
     9    20    21    1
    10    21    22    2
    11    21    23   am
    12    23    24    1
    13    24    25    1
    14    25    26   ar
    15    26    27   ar
    16    27    28   ar
    17    28    29   ar
    18    29    30   ar
    19    23    31    1
    20    31    32    1
    21    32    33    1
    22    32    34    1
    23    32    35    1
    24     3     4   ar
    25     4     5   ar
    26     8     9   ar
    27     9    10   ar
    28    10    11   ar
    29    11    12    1
    30    12    13   ar
    31    13    14   ar
    32    14    15   ar
    33    15    16    1
    34    15    17   ar
    35    11     6   ar
    36    17    12   ar
    37     5     1   ar
    38    30    25   ar
@<TRIPOS>MOLECULE
*****
 35 38 0 0 0
SMALL
GASTEIGER

@<TRIPOS>ATOM
      1 C         142.8154  137.1208  157.5776 C.ar    1  UNL1        0.1233
      2 C         142.3566  137.4145  158.9751 C.ar    1  UNL1        0.1181
      3 N         142.7815  138.8114  159.3186 N.ar    1  UNL1       -0.2208
      4 N         143.5030  139.3811  158.1333 N.ar    1  UNL1       -0.0633
      5 N         143.5240  138.3363  157.0573 N.ar    1  UNL1       -0.1287
      6 C         143.1963  133.3383  156.4383 C.ar    1  UNL1        0.1547
      7 C         143.4086  134.6220  157.1846 C.ar    1  UNL1        0.0400
      8 C         142.6031  135.8370  156.8312 C.ar    1  UNL1        0.0241
      9 C         141.5852  135.7683  155.7317 C.ar    1  UNL1        0.0033
     10 C         141.3729  134.4846  154.9854 C.ar    1  UNL1        0.0207
     11 C         142.1784  133.2696  155.3388 C.ar    1  UNL1        0.0994
     12 N         141.9661  131.9858  154.5924 N.ar    1  UNL1       -0.2839
     13 C         142.8296  131.4557  153.4864 C.ar    1  UNL1        0.1826
     14 N         142.2501  130.1491  153.0316 N.ar    1  UNL1       -0.2280
     15 C         141.0284  129.8716  153.8566 C.ar    1  UNL1        0.0786
     16 C         140.1385  128.6700  153.7377 C.3     1  UNL1        0.0538
     17 C         140.8529  131.0068  154.8212 C.ar    1  UNL1        0.0963
     18 C         145.0674  132.2098  157.8439 C.3     1  UNL1        0.2525
     19 O         144.0019  132.1233  156.7917 O.3     1  UNL1       -0.4700
     20 C         142.5292  139.5151  160.6190 C.3     1  UNL1        0.2138
     21 C         142.3447  138.7210  161.8781 C.2     1  UNL1        0.2510
     22 O         143.5278  138.4012  162.7432 O.2     1  UNL1       -0.2727
     23 N         140.9774  138.2466  162.2721 N.am    1  UNL1       -0.2660
     24 C         140.7929  137.4525  163.5312 C.3     1  UNL1        0.1205
     25 C         140.1264  138.0771  164.7210 C.ar    1  UNL1       -0.0023
     26 C         138.7772  137.5943  165.1643 C.ar    1  UNL1       -0.0026
     27 C         138.1107  138.2189  166.3541 C.ar    1  UNL1       -0.0003
     28 C         138.7935  139.3263  167.1007 C.ar    1  UNL1       -0.0000
     29 C         140.1427  139.8091  166.6575 C.ar    1  UNL1       -0.0003
     30 C         140.8092  139.1845  165.4677 C.ar    1  UNL1       -0.0026
     31 C         139.7945  138.5665  161.4070 C.3     1  UNL1        0.1976
     32 C         138.6117  139.2825  161.9885 C.3     1  UNL1        0.4157
     33 F         137.4288  139.9984  162.5700 F       1  UNL1       -0.1682
     34 F         139.4852  140.4557  162.3210 F       1  UNL1       -0.1682
     35 F         137.7380  138.1093  161.6559 F       1  UNL1       -0.1682
@<TRIPOS>BOND
     1    18    19    1
     2    19     6    1
     3     6     7   ar
     4     7     8   ar
     5     8     1    1
     6     1     2   ar
     7     2     3   ar
     8     3    20    1
     9    20    21    1
    10    21    22    2
    11    21    23   am
    12    23    24    1
    13    24    25    1
    14    25    26   ar
    15    26    27   ar
    16    27    28   ar
    17    28    29   ar
    18    29    30   ar
    19    23    31    1
    20    31    32    1
    21    32    33    1
    22    32    34    1
    23    32    35    1
    24     3     4   ar
    25     4     5   ar
    26     8     9   ar
    27     9    10   ar
    28    10    11   ar
    29    11    12    1
    30    12    13   ar
    31    13    14   ar
    32    14    15   ar
    33    15    16    1
    34    15    17   ar
    35    11     6   ar
    36    17    12   ar
    37     5     1   ar
    38    30    25   ar
@<TRIPOS>MOLECULE
*****
 35 38 0 0 0
SMALL
GASTEIGER

@<TRIPOS>ATOM
      1 C         142.8432  141.8650  160.8772 C.ar    1  UNL1        0.1233
      2 C         142.3206  141.9731  162.2791 C.ar    1  UNL1        0.1181
      3 N         142.7400  143.3042  162.8288 N.ar    1  UNL1       -0.2208
      4 N         143.5219  144.0188  161.7666 N.ar    1  UNL1       -0.0633
      5 N         143.5857  143.1293  160.5605 N.ar    1  UNL1       -0.1287
      6 C         143.3124  139.4077  157.7963 C.ar    1  UNL1        0.1547
      7 C         143.4993  140.5751  158.7195 C.ar    1  UNL1        0.0400
      8 C         142.6563  140.6975  159.9541 C.ar    1  UNL1        0.0241
      9 C         141.6264  139.6525  160.2656 C.ar    1  UNL1        0.0033
     10 C         141.4394  138.4851  159.3425 C.ar    1  UNL1        0.0207
     11 C         142.2825  138.3627  158.1079 C.ar    1  UNL1        0.0994
     12 N         142.0955  137.1952  157.1847 N.ar    1  UNL1       -0.2839
     13 C         141.0420  137.0695  156.1244 C.ar    1  UNL1        0.1826
     14 N         141.2247  135.7451  155.4442 N.ar    1  UNL1       -0.2280
     15 C         142.3911  135.0523  156.0842 C.ar    1  UNL1        0.0786
     16 C         142.9255  133.7006  155.7136 C.3     1  UNL1        0.0538
     17 C         142.9293  135.9485  157.1599 C.ar    1  UNL1        0.0963
     18 C         143.7056  139.9220  155.2802 C.3     1  UNL1        0.2525
     19 O         144.1554  139.2854  156.5617 O.3     1  UNL1       -0.4700
     20 C         142.4317  143.8287  164.1999 C.3     1  UNL1        0.2138
     21 C         141.9401  142.8958  165.2667 C.2     1  UNL1        0.2510
     22 O         142.9122  142.2735  166.2250 O.2     1  UNL1       -0.2727
     23 N         140.4768  142.5852  165.3754 N.am    1  UNL1       -0.2660
     24 C         139.9852  141.6524  166.4422 C.3     1  UNL1        0.1205
     25 C         139.5742  140.2546  166.0852 C.ar    1  UNL1       -0.0023
     26 C         140.2972  139.5145  164.9992 C.ar    1  UNL1       -0.0026
     27 C         139.8862  138.1168  164.6421 C.ar    1  UNL1       -0.0003
     28 C         138.7521  137.4592  165.3712 C.ar    1  UNL1       -0.0000
     29 C         138.0291  138.1993  166.4572 C.ar    1  UNL1       -0.0003
     30 C         138.4402  139.5970  166.8142 C.ar    1  UNL1       -0.0026
     31 C         139.5049  143.2076  164.4171 C.3     1  UNL1        0.1976
     32 C         138.3421  143.9999  164.9369 C.3     1  UNL1        0.4157
     33 F         137.1793  144.7922  165.4566 F       1  UNL1       -0.1682
     34 F         139.2509  145.1654  165.1933 F       1  UNL1       -0.1682
     35 F         137.4333  142.8344  164.6804 F       1  UNL1       -0.1682
@<TRIPOS>BOND
     1    18    19    1
     2    19     6    1
     3     6     7   ar
     4     7     8   ar
     5     8     1    1
     6     1     2   ar
     7     2     3   ar
     8     3    20    1
     9    20    21    1
    10    21    22    2
    11    21    23   am
    12    23    24    1
    13    24    25    1
    14    25    26   ar
    15    26    27   ar
    16    27    28   ar
    17    28    29   ar
    18    29    30   ar
    19    23    31    1
    20    31    32    1
    21    32    33    1
    22    32    34    1
    23    32    35    1
    24     3     4   ar
    25     4     5   ar
    26     8     9   ar
    27     9    10   ar
    28    10    11   ar
    29    11    12    1
    30    12    13   ar
    31    13    14   ar
    32    14    15   ar
    33    15    16    1
    34    15    17   ar
    35    11     6   ar
    36    17    12   ar
    37     5     1   ar
    38    30    25   ar
@<TRIPOS>MOLECULE
*****
 35 38 0 0 0
SMALL
GASTEIGER

@<TRIPOS>ATOM
      1 C         140.2148  142.8077  160.8023 C.ar    1  UNL1        0.1233
      2 C         140.3070  142.3580  162.2302 C.ar    1  UNL1        0.1181
      3 N         138.9902  142.6400  162.8910 N.ar    1  UNL1       -0.2208
      4 N         138.0842  143.2641  161.8713 N.ar    1  UNL1       -0.0633
      5 N         138.8410  143.3678  160.5804 N.ar    1  UNL1       -0.1287
      6 C         142.9216  141.2781  158.3358 C.ar    1  UNL1        0.1547
      7 C         141.8315  141.3719  159.3618 C.ar    1  UNL1        0.0400
      8 C         141.3050  142.7140  159.7762 C.ar    1  UNL1        0.0241
      9 C         141.8685  143.9622  159.1644 C.ar    1  UNL1        0.0033
     10 C         142.9586  143.8684  158.1384 C.ar    1  UNL1        0.0207
     11 C         143.4852  142.5264  157.7241 C.ar    1  UNL1        0.0994
     12 N         144.5754  142.4326  156.6980 N.ar    1  UNL1       -0.2839
     13 C         144.3984  142.5331  155.2119 C.ar    1  UNL1        0.1826
     14 N         145.7475  142.3845  154.5733 N.ar    1  UNL1       -0.2280
     15 C         146.7584  142.1922  155.6648 C.ar    1  UNL1        0.0786
     16 C         148.2344  142.0033  155.4763 C.3     1  UNL1        0.0538
     17 C         146.0339  142.2220  156.9779 C.ar    1  UNL1        0.0963
     18 C         142.7863  138.6849  158.4177 C.3     1  UNL1        0.2525
     19 O         143.4482  139.9361  157.9215 O.3     1  UNL1       -0.4700
     20 C         138.6408  142.3490  164.3204 C.3     1  UNL1        0.2138
     21 C         139.7008  141.8752  165.2701 C.2     1  UNL1        0.2510
     22 O         140.5293  142.8709  166.0268 O.2     1  UNL1       -0.2727
     23 N         139.9323  140.4059  165.4633 N.am    1  UNL1       -0.2660
     24 C         140.9923  139.9321  166.4130 C.3     1  UNL1        0.1205
     25 C         140.7611  140.0074  167.8932 C.ar    1  UNL1       -0.0023
     26 C         139.3826  140.2659  168.4248 C.ar    1  UNL1       -0.0026
     27 C         139.1514  140.3413  169.9050 C.ar    1  UNL1       -0.0003
     28 C         140.2989  140.1581  170.8536 C.ar    1  UNL1       -0.0000
     29 C         141.6775  139.8996  170.3219 C.ar    1  UNL1       -0.0003
     30 C         141.9086  139.8243  168.8417 C.ar    1  UNL1       -0.0026
     31 C         139.1038  139.4103  164.7066 C.3     1  UNL1        0.1976
     32 C         138.5794  138.1887  165.4013 C.3     1  UNL1        0.4157
     33 F         138.0550  136.9670  166.0959 F       1  UNL1       -0.1682
     34 F         137.5671  139.0313  166.1191 F       1  UNL1       -0.1682
     35 F         139.5917  137.3460  164.6834 F       1  UNL1       -0.1682
@<TRIPOS>BOND
     1    18    19    1
     2    19     6    1
     3     6     7   ar
     4     7     8   ar
     5     8     1    1
     6     1     2   ar
     7     2     3   ar
     8     3    20    1
     9    20    21    1
    10    21    22    2
    11    21    23   am
    12    23    24    1
    13    24    25    1
    14    25    26   ar
    15    26    27   ar
    16    27    28   ar
    17    28    29   ar
    18    29    30   ar
    19    23    31    1
    20    31    32    1
    21    32    33    1
    22    32    34    1
    23    32    35    1
    24     3     4   ar
    25     4     5   ar
    26     8     9   ar
    27     9    10   ar
    28    10    11   ar
    29    11    12    1
    30    12    13   ar
    31    13    14   ar
    32    14    15   ar
    33    15    16    1
    34    15    17   ar
    35    11     6   ar
    36    17    12   ar
    37     5     1   ar
    38    30    25   ar
@<TRIPOS>MOLECULE
*****
 35 38 0 0 0
SMALL
GASTEIGER

@<TRIPOS>ATOM
      1 C         142.8613  137.3252  157.5443 C.ar    1  UNL1        0.1233
      2 C         142.2842  137.7389  158.8656 C.ar    1  UNL1        0.1181
      3 N         142.7683  139.1258  159.1689 N.ar    1  UNL1       -0.2208
      4 N         143.6445  139.5694  158.0351 N.ar    1  UNL1       -0.0633
      5 N         143.7020  138.4565  157.0311 N.ar    1  UNL1       -0.1287
      6 C         143.0906  133.4590  156.6783 C.ar    1  UNL1        0.1547
      7 C         143.3148  134.7732  157.3657 C.ar    1  UNL1        0.0400
      8 C         142.6371  136.0109  156.8569 C.ar    1  UNL1        0.0241
      9 C         141.7351  135.9343  155.6609 C.ar    1  UNL1        0.0033
     10 C         141.5109  134.6201  154.9736 C.ar    1  UNL1        0.0207
     11 C         142.1887  133.3824  155.4823 C.ar    1  UNL1        0.0994
     12 N         141.9645  132.0681  154.7949 N.ar    1  UNL1       -0.2839
     13 C         142.9231  131.3841  153.8659 C.ar    1  UNL1        0.1826
     14 N         142.2933  130.1004  153.4127 N.ar    1  UNL1       -0.2280
     15 C         140.9454  129.9910  154.0616 C.ar    1  UNL1        0.0786
     16 C         139.9717  128.8634  153.8870 C.3     1  UNL1        0.0538
     17 C         140.7421  131.2071  154.9159 C.ar    1  UNL1        0.0963
     18 C         145.1032  132.3215  157.8638 C.3     1  UNL1        0.2525
     19 O         143.7684  132.2213  157.1871 O.3     1  UNL1       -0.4700
     20 C         142.4346  139.9284  160.3915 C.3     1  UNL1        0.2138
     21 C         143.3305  139.8721  161.5932 C.2     1  UNL1        0.2510
     22 O         144.5133  140.7896  161.6906 O.2     1  UNL1       -0.2727
     23 N         143.0438  138.8984  162.6975 N.am    1  UNL1       -0.2660
     24 C         143.9397  138.8420  163.8992 C.3     1  UNL1        0.1205
     25 C         143.4922  139.4458  165.1974 C.ar    1  UNL1       -0.0023
     26 C         143.2394  140.9214  165.2906 C.ar    1  UNL1       -0.0026
     27 C         142.7918  141.5251  166.5888 C.ar    1  UNL1       -0.0003
     28 C         142.5970  140.6533  167.7937 C.ar    1  UNL1       -0.0000
     29 C         142.8498  139.1777  167.7005 C.ar    1  UNL1       -0.0003
     30 C         143.2974  138.5739  166.4023 C.ar    1  UNL1       -0.0026
     31 C         141.8611  137.9809  162.6000 C.3     1  UNL1        0.1976
     32 C         140.8319  137.9655  163.6911 C.3     1  UNL1        0.4157
     33 F         139.8026  137.9501  164.7821 F       1  UNL1       -0.1682
     34 F         141.2887  136.5973  164.1028 F       1  UNL1       -0.1682
     35 F         140.3750  139.3337  163.2794 F       1  UNL1       -0.1682
@<TRIPOS>BOND
     1    18    19    1
     2    19     6    1
     3     6     7   ar
     4     7     8   ar
     5     8     1    1
     6     1     2   ar
     7     2     3   ar
     8     3    20    1
     9    20    21    1
    10    21    22    2
    11    21    23   am
    12    23    24    1
    13    24    25    1
    14    25    26   ar
    15    26    27   ar
    16    27    28   ar
    17    28    29   ar
    18    29    30   ar
    19    23    31    1
    20    31    32    1
    21    32    33    1
    22    32    34    1
    23    32    35    1
    24     3     4   ar
    25     4     5   ar
    26     8     9   ar
    27     9    10   ar
    28    10    11   ar
    29    11    12    1
    30    12    13   ar
    31    13    14   ar
    32    14    15   ar
    33    15    16    1
    34    15    17   ar
    35    11     6   ar
    36    17    12   ar
    37     5     1   ar
    38    30    25   ar
@<TRIPOS>MOLECULE
*****
 35 38 0 0 0
SMALL
GASTEIGER

@<TRIPOS>ATOM
      1 C         140.6981  144.1072  160.5020 C.ar    1  UNL1        0.1233
      2 C         139.7574  143.2787  161.3257 C.ar    1  UNL1        0.1181
      3 N         138.8759  144.2119  162.1016 N.ar    1  UNL1       -0.2208
      4 N         139.2719  145.6172  161.7575 N.ar    1  UNL1       -0.0633
      5 N         140.3981  145.5524  160.7688 N.ar    1  UNL1       -0.1287
      6 C         143.5049  141.7655  158.9563 C.ar    1  UNL1        0.1547
      7 C         142.4494  142.2902  159.8840 C.ar    1  UNL1        0.0400
      8 C         141.7537  143.5825  159.5742 C.ar    1  UNL1        0.0241
      9 C         142.1136  144.3502  158.3369 C.ar    1  UNL1        0.0033
     10 C         143.1691  143.8256  157.4092 C.ar    1  UNL1        0.0207
     11 C         143.8647  142.5332  157.7190 C.ar    1  UNL1        0.0994
     12 N         144.9203  142.0086  156.7912 N.ar    1  UNL1       -0.2839
     13 C         144.7074  141.0229  155.6808 C.ar    1  UNL1        0.1826
     14 N         146.0296  140.7827  155.0144 N.ar    1  UNL1       -0.2280
     15 C         147.0597  141.6199  155.7130 C.ar    1  UNL1        0.0786
     16 C         148.5191  141.6876  155.3731 C.3     1  UNL1        0.0538
     17 C         146.3741  142.3776  156.8111 C.ar    1  UNL1        0.0963
     18 C         143.5463  139.4658  160.1643 C.3     1  UNL1        0.2525
     19 O         144.2005  140.4732  159.2660 O.3     1  UNL1       -0.4700
     20 C         137.7892  143.8104  163.0544 C.3     1  UNL1        0.2138
     21 C         137.7175  142.3996  163.5589 C.2     1  UNL1        0.2510
     22 O         136.8661  141.3906  162.8464 O.2     1  UNL1       -0.2727
     23 N         138.4970  141.9975  164.7756 N.am    1  UNL1       -0.2660
     24 C         138.4253  140.5867  165.2801 C.3     1  UNL1        0.1205
     25 C         139.2900  139.5258  164.6662 C.ar    1  UNL1       -0.0023
     26 C         138.7724  138.7057  163.5219 C.ar    1  UNL1       -0.0026
     27 C         139.6371  137.6448  162.9079 C.ar    1  UNL1       -0.0003
     28 C         141.0193  137.4041  163.4383 C.ar    1  UNL1       -0.0000
     29 C         141.5369  138.2242  164.5826 C.ar    1  UNL1       -0.0003
     30 C         140.6723  139.2851  165.1965 C.ar    1  UNL1       -0.0026
     31 C         139.3483  143.0065  165.4880 C.3     1  UNL1        0.1976
     32 C         140.7946  142.7123  165.7558 C.3     1  UNL1        0.4157
     33 F         142.2409  142.4181  166.0234 F       1  UNL1       -0.1682
     34 F         140.5147  142.6766  167.2290 F       1  UNL1       -0.1682
     35 F         141.0745  142.7480  164.2825 F       1  UNL1       -0.1682
@<TRIPOS>BOND
     1    18    19    1
     2    19     6    1
     3     6     7   ar
     4     7     8   ar
     5     8     1    1
     6     1     2   ar
     7     2     3   ar
     8     3    20    1
     9    20    21    1
    10    21    22    2
    11    21    23   am
    12    23    24    1
    13    24    25    1
    14    25    26   ar
    15    26    27   ar
    16    27    28   ar
    17    28    29   ar
    18    29    30   ar
    19    23    31    1
    20    31    32    1
    21    32    33    1
    22    32    34    1
    23    32    35    1
    24     3     4   ar
    25     4     5   ar
    26     8     9   ar
    27     9    10   ar
    28    10    11   ar
    29    11    12    1
    30    12    13   ar
    31    13    14   ar
    32    14    15   ar
    33    15    16    1
    34    15    17   ar
    35    11     6   ar
    36    17    12   ar
    37     5     1   ar
    38    30    25   ar
@<TRIPOS>MOLECULE
*****
 35 38 0 0 0
SMALL
GASTEIGER

@<TRIPOS>ATOM
      1 C         141.4582  143.1303  160.8186 C.ar    1  UNL1        0.1233
      2 C         141.4254  142.8607  162.2938 C.ar    1  UNL1        0.1181
      3 N         142.5237  143.6561  162.9349 N.ar    1  UNL1       -0.2208
      4 N         143.2354  144.4173  161.8559 N.ar    1  UNL1       -0.0633
      5 N         142.5768  144.0924  160.5480 N.ar    1  UNL1       -0.1287
      6 C         138.6435  140.8754  159.1624 C.ar    1  UNL1        0.1547
      7 C         139.5672  141.4644  160.1870 C.ar    1  UNL1        0.0400
      8 C         140.5345  142.5413  159.7939 C.ar    1  UNL1        0.0241
      9 C         140.5782  143.0292  158.3762 C.ar    1  UNL1        0.0033
     10 C         139.6545  142.4402  157.3516 C.ar    1  UNL1        0.0207
     11 C         138.6872  141.3633  157.7447 C.ar    1  UNL1        0.0994
     12 N         137.7635  140.7743  156.7199 N.ar    1  UNL1       -0.2839
     13 C         138.1203  139.7216  155.7128 C.ar    1  UNL1        0.1826
     14 N         136.8982  139.4313  154.8929 N.ar    1  UNL1       -0.2280
     15 C         135.7860  140.3047  155.3934 C.ar    1  UNL1        0.0786
     16 C         134.3851  140.3415  154.8586 C.3     1  UNL1        0.0538
     17 C         136.3209  141.1347  156.5226 C.ar    1  UNL1        0.0963
     18 C         137.5645  139.3782  160.9910 C.3     1  UNL1        0.2525
     19 O         137.6762  139.7985  159.5555 O.3     1  UNL1       -0.4700
     20 C         142.8527  143.6852  164.3981 C.3     1  UNL1        0.2138
     21 C         142.2974  142.6340  165.3128 C.2     1  UNL1        0.2510
     22 O         141.0400  142.9010  166.0861 O.2     1  UNL1       -0.2727
     23 N         142.9992  141.3160  165.4541 N.am    1  UNL1       -0.2660
     24 C         142.4439  140.2648  166.3688 C.3     1  UNL1        0.1205
     25 C         141.2993  139.4067  165.9177 C.ar    1  UNL1       -0.0023
     26 C         139.9119  139.6845  166.4157 C.ar    1  UNL1       -0.0026
     27 C         138.7673  138.8264  165.9646 C.ar    1  UNL1       -0.0003
     28 C         139.0100  137.6905  165.0154 C.ar    1  UNL1       -0.0000
     29 C         140.3974  137.4128  164.5174 C.ar    1  UNL1       -0.0003
     30 C         141.5420  138.2708  164.9686 C.ar    1  UNL1       -0.0026
     31 C         144.2566  141.0491  164.6808 C.3     1  UNL1        0.1976
     32 C         144.3497  139.8434  163.7935 C.3     1  UNL1        0.4157
     33 F         144.4428  138.6376  162.9061 F       1  UNL1       -0.1682
     34 F         145.3644  139.2405  164.7192 F       1  UNL1       -0.1682
     35 F         143.3350  140.4463  162.8677 F       1  UNL1       -0.1682
@<TRIPOS>BOND
     1    18    19    1
     2    19     6    1
     3     6     7   ar
     4     7     8   ar
     5     8     1    1
     6     1     2   ar
     7     2     3   ar
     8     3    20    1
     9    20    21    1
    10    21    22    2
    11    21    23   am
    12    23    24    1
    13    24    25    1
    14    25    26   ar
    15    26    27   ar
    16    27    28   ar
    17    28    29   ar
    18    29    30   ar
    19    23    31    1
    20    31    32    1
    21    32    33    1
    22    32    34    1
    23    32    35    1
    24     3     4   ar
    25     4     5   ar
    26     8     9   ar
    27     9    10   ar
    28    10    11   ar
    29    11    12    1
    30    12    13   ar
    31    13    14   ar
    32    14    15   ar
    33    15    16    1
    34    15    17   ar
    35    11     6   ar
    36    17    12   ar
    37     5     1   ar
    38    30    25   ar
@<TRIPOS>MOLECULE
*****
 35 38 0 0 0
SMALL
GASTEIGER

@<TRIPOS>ATOM
      1 C         139.1402  142.7710  160.0191 C.ar    1  UNL1        0.1233
      2 C         139.8916  141.5445  160.4445 C.ar    1  UNL1        0.1181
      3 N         139.2477  141.0159  161.6919 N.ar    1  UNL1       -0.2208
      4 N         138.0984  141.9158  162.0374 N.ar    1  UNL1       -0.0633
      5 N         138.0320  143.0005  161.0036 N.ar    1  UNL1       -0.1287
      6 C         139.1401  144.1308  156.2906 C.ar    1  UNL1        0.1547
      7 C         138.8366  143.2826  157.4900 C.ar    1  UNL1        0.0400
      8 C         139.4438  143.6193  158.8197 C.ar    1  UNL1        0.0241
      9 C         140.3544  144.8041  158.9500 C.ar    1  UNL1        0.0033
     10 C         140.6579  145.6522  157.7507 C.ar    1  UNL1        0.0207
     11 C         140.0508  145.3156  156.4210 C.ar    1  UNL1        0.0994
     12 N         140.3543  146.1638  155.2216 N.ar    1  UNL1       -0.2839
     13 C         141.3152  145.8234  154.1213 C.ar    1  UNL1        0.1826
     14 N         141.3050  146.9505  153.1317 N.ar    1  UNL1       -0.2280
     15 C         140.3377  147.9877  153.6204 C.ar    1  UNL1        0.0786
     16 C         140.0147  149.2835  152.9374 C.3     1  UNL1        0.0538
     17 C         139.7502  147.5015  154.9120 C.ar    1  UNL1        0.0963
     18 C         137.1130  144.1771  154.6663 C.3     1  UNL1        0.2525
     19 O         138.5330  143.7942  154.9609 O.3     1  UNL1       -0.4700
     20 C         139.6777  139.8007  162.4591 C.3     1  UNL1        0.2138
     21 C         140.5563  139.9477  163.6660 C.2     1  UNL1        0.2510
     22 O         141.7634  140.8366  163.6110 O.2     1  UNL1       -0.2727
     23 N         140.2278  139.2061  164.9276 N.am    1  UNL1       -0.2660
     24 C         141.1064  139.3531  166.1345 C.3     1  UNL1        0.1205
     25 C         140.7852  140.3847  167.1749 C.ar    1  UNL1       -0.0023
     26 C         140.9030  141.8435  166.8461 C.ar    1  UNL1       -0.0026
     27 C         140.5818  142.8752  167.8865 C.ar    1  UNL1       -0.0003
     28 C         140.1427  142.4481  169.2557 C.ar    1  UNL1       -0.0000
     29 C         140.0248  140.9894  169.5845 C.ar    1  UNL1       -0.0003
     30 C         140.3461  139.9577  168.5441 C.ar    1  UNL1       -0.0026
     31 C         139.0207  138.3173  164.9825 C.3     1  UNL1        0.1976
     32 C         138.0506  138.4391  166.1200 C.3     1  UNL1        0.4157
     33 F         137.0806  138.5608  167.2576 F       1  UNL1       -0.1682
     34 F         137.8850  139.8999  165.8225 F       1  UNL1       -0.1682
     35 F         138.2162  136.9782  166.4176 F       1  UNL1       -0.1682
@<TRIPOS>BOND
     1    18    19    1
     2    19     6    1
     3     6     7   ar
     4     7     8   ar
     5     8     1    1
     6     1     2   ar
     7     2     3   ar
     8     3    20    1
     9    20    21    1
    10    21    22    2
    11    21    23   am
    12    23    24    1
    13    24    25    1
    14    25    26   ar
    15    26    27   ar
    16    27    28   ar
    17    28    29   ar
    18    29    30   ar
    19    23    31    1
    20    31    32    1
    21    32    33    1
    22    32    34    1
    23    32    35    1
    24     3     4   ar
    25     4     5   ar
    26     8     9   ar
    27     9    10   ar
    28    10    11   ar
    29    11    12    1
    30    12    13   ar
    31    13    14   ar
    32    14    15   ar
    33    15    16    1
    34    15    17   ar
    35    11     6   ar
    36    17    12   ar
    37     5     1   ar
    38    30    25   ar
@<TRIPOS>MOLECULE
*****
 35 38 0 0 0
SMALL
GASTEIGER

@<TRIPOS>ATOM
      1 C         142.9105  137.2693  157.5944 C.ar    1  UNL1        0.1233
      2 C         142.5906  137.5330  159.0359 C.ar    1  UNL1        0.1181
      3 N         143.0309  138.9297  159.3605 N.ar    1  UNL1       -0.2208
      4 N         143.6230  139.5293  158.1195 N.ar    1  UNL1       -0.0633
      5 N         143.5486  138.5031  157.0280 N.ar    1  UNL1       -0.1287
      6 C         142.9776  133.4340  156.5766 C.ar    1  UNL1        0.1547
      7 C         143.2481  134.7078  157.3210 C.ar    1  UNL1        0.0400
      8 C         142.6400  135.9955  156.8499 C.ar    1  UNL1        0.0241
      9 C         141.7613  136.0094  155.6343 C.ar    1  UNL1        0.0033
     10 C         141.4907  134.7356  154.8899 C.ar    1  UNL1        0.0207
     11 C         142.0989  133.4479  155.3610 C.ar    1  UNL1        0.0994
     12 N         141.8283  132.1741  154.6165 N.ar    1  UNL1       -0.2839
     13 C         142.6445  131.6241  153.4845 C.ar    1  UNL1        0.1826
     14 N         142.0146  130.3368  153.0417 N.ar    1  UNL1       -0.2280
     15 C         140.8092  130.0911  153.9001 C.ar    1  UNL1        0.0786
     16 C         139.8818  128.9163  153.8023 C.3     1  UNL1        0.0538
     17 C         140.6941  131.2267  154.8733 C.ar    1  UNL1        0.0963
     18 C         145.0768  132.0101  157.1385 C.3     1  UNL1        0.2525
     19 O         143.5858  132.1463  157.0477 O.3     1  UNL1       -0.4700
     20 C         142.9017  139.6079  160.6922 C.3     1  UNL1        0.2138
     21 C         141.5431  139.9113  161.2508 C.2     1  UNL1        0.2510
     22 O         140.7784  141.1037  160.7572 O.2     1  UNL1       -0.2727
     23 N         140.9491  139.0224  162.3029 N.am    1  UNL1       -0.2660
     24 C         139.5904  139.3258  162.8614 C.3     1  UNL1        0.1205
     25 C         139.4024  139.4641  164.3432 C.ar    1  UNL1       -0.0023
     26 C         140.0939  140.5679  165.0871 C.ar    1  UNL1       -0.0026
     27 C         139.9059  140.7062  166.5689 C.ar    1  UNL1       -0.0003
     28 C         139.0265  139.7408  167.3067 C.ar    1  UNL1       -0.0000
     29 C         138.3350  138.6370  166.5627 C.ar    1  UNL1       -0.0003
     30 C         138.5230  138.4986  165.0810 C.ar    1  UNL1       -0.0026
     31 C         141.7138  137.8300  162.7964 C.3     1  UNL1        0.1976
     32 C         142.1795  137.7749  164.2211 C.3     1  UNL1        0.4157
     33 F         142.6452  137.7196  165.6459 F       1  UNL1       -0.1682
     34 F         143.1190  138.9143  163.9582 F       1  UNL1       -0.1682
     35 F         141.2400  136.6354  164.4841 F       1  UNL1       -0.1682
@<TRIPOS>BOND
     1    18    19    1
     2    19     6    1
     3     6     7   ar
     4     7     8   ar
     5     8     1    1
     6     1     2   ar
     7     2     3   ar
     8     3    20    1
     9    20    21    1
    10    21    22    2
    11    21    23   am
    12    23    24    1
    13    24    25    1
    14    25    26   ar
    15    26    27   ar
    16    27    28   ar
    17    28    29   ar
    18    29    30   ar
    19    23    31    1
    20    31    32    1
    21    32    33    1
    22    32    34    1
    23    32    35    1
    24     3     4   ar
    25     4     5   ar
    26     8     9   ar
    27     9    10   ar
    28    10    11   ar
    29    11    12    1
    30    12    13   ar
    31    13    14   ar
    32    14    15   ar
    33    15    16    1
    34    15    17   ar
    35    11     6   ar
    36    17    12   ar
    37     5     1   ar
    38    30    25   ar
