@<TRIPOS>MOLECULE
*****
 32 36 0 0 0
SMALL
GASTEIGER

@<TRIPOS>ATOM
      1 C         140.6428  137.6432  163.9338 C.3     1  UNL1        0.0545
      2 C         139.2095  137.5561  164.3673 C.3     1  UNL1        0.0162
      3 C         139.0553  138.3619  165.6231 C.3     1  UNL1        0.0095
      4 C         138.0742  138.8061  166.6672 C.3     1  UNL1        0.0005
      5 C         138.8059  139.6657  167.6550 C.3     1  UNL1        0.0005
      6 C         140.2392  139.7528  167.2214 C.3     1  UNL1        0.0087
      7 C         140.3934  138.9470  165.9657 C.3     1  UNL1        0.0704
      8 C         141.3745  138.5028  164.9216 C.3     1  UNL1        0.0243
      9 C         141.7314  139.5321  166.3082 C.2     1  UNL1        0.2250
     10 O         142.6739  138.7781  167.1988 O.2     1  UNL1       -0.2749
     11 N         142.1270  140.8711  165.7600 N.am    1  UNL1       -0.2751
     12 C         143.4651  141.4562  166.1025 C.3     1  UNL1        0.0984
     13 C         143.8606  142.7952  165.5543 C.3     1  UNL1        0.0476
     14 C         142.9182  143.5491  164.6636 C.ar    1  UNL1       -0.0228
     15 C         143.3138  144.8882  164.1155 C.ar    1  UNL1       -0.0038
     16 C         142.3713  145.6422  163.2248 C.ar    1  UNL1        0.0099
     17 C         141.0332  145.0571  162.8823 C.ar    1  UNL1        0.0682
     18 C         140.6377  143.7181  163.4305 C.ar    1  UNL1        0.0074
     19 C         141.5801  142.9641  164.3211 C.ar    1  UNL1       -0.0056
     20 C         141.1846  141.6251  164.8693 C.3     1  UNL1        0.1198
     21 C         140.0908  145.8110  161.9916 C.1     1  UNL1        0.1004
     22 N         139.1483  146.5650  161.1009 N.1     1  UNL1       -0.1908
     23 N         141.2397  136.9861  162.7246 N.3     1  UNL1       -0.2975
     24 H         141.9323  136.3186  163.0640 H       1  UNL1        0.1232
     25 C         141.1144  138.4199  160.5617 C.3     1  UNL1        0.1591
     26 C         141.7921  139.2520  159.5136 C.3     1  UNL1        0.1729
     27 O         143.2728  139.4822  159.5804 O.3     1  UNL1       -0.3511
     28 C         144.0759  138.8803  160.6953 C.3     1  UNL1        0.1437
     29 C         143.3982  138.0483  161.7434 C.3     1  UNL1        0.0503
     30 C         141.9174  137.8181  161.6766 C.3     1  UNL1        0.0865
     31 C         138.6890  139.2222  161.0351 C.3     1  UNL1        0.1742
     32 O         139.6337  138.1897  160.4949 O.3     1  UNL1       -0.3496
@<TRIPOS>BOND
     1    31    32    1
     2    32    25    1
     3    25    26    1
     4    26    27    1
     5    27    28    1
     6    28    29    1
     7    29    30    1
     8    30    23    1
     9     1    23    1
    10     1     2    1
    11     3     2    1
    12     3     4    1
    13     4     5    1
    14     5     6    1
    15     6     7    1
    16     7     9    1
    17     9    10    2
    18     9    11   am
    19    11    12    1
    20    12    13    1
    21    13    14    1
    22    14    15   ar
    23    15    16   ar
    24    16    17   ar
    25    17    21    1
    26    21    22    3
    27    17    18   ar
    28    18    19   ar
    29    19    20    1
    30     7     8    1
    31    30    25    1
    32     8     1    1
    33     7     3    1
    34    20    11    1
    35    19    14   ar
    36    23    24    1
@<TRIPOS>MOLECULE
*****
 32 36 0 0 0
SMALL
GASTEIGER

@<TRIPOS>ATOM
      1 C         141.1744  141.9656  161.9344 C.3     1  UNL1        0.0545
      2 C         140.9093  143.4238  161.7036 C.3     1  UNL1        0.0162
      3 C         139.6065  143.7681  162.3626 C.3     1  UNL1        0.0095
      4 C         138.6375  144.8821  162.6272 C.3     1  UNL1        0.0005
      5 C         137.4986  144.3251  163.4289 C.3     1  UNL1        0.0005
      6 C         137.7637  142.8669  163.6597 C.3     1  UNL1        0.0087
      7 C         139.0664  142.5226  163.0007 C.3     1  UNL1        0.0704
      8 C         140.0355  141.4087  162.7361 C.3     1  UNL1        0.0243
      9 C         138.5265  141.2772  163.6388 C.2     1  UNL1        0.2250
     10 O         137.6191  140.3695  162.8624 O.2     1  UNL1       -0.2749
     11 N         138.8938  140.9394  165.0534 N.am    1  UNL1       -0.2751
     12 C         138.3538  139.6939  165.6915 C.3     1  UNL1        0.0984
     13 C         138.7212  139.3562  167.1061 C.3     1  UNL1        0.0476
     14 C         139.6286  140.2638  167.8825 C.ar    1  UNL1       -0.0228
     15 C         139.9959  139.9260  169.2971 C.ar    1  UNL1       -0.0038
     16 C         140.9033  140.8337  170.0735 C.ar    1  UNL1        0.0099
     17 C         141.4433  142.0792  169.4353 C.ar    1  UNL1        0.0682
     18 C         141.0759  142.4170  168.0207 C.ar    1  UNL1        0.0074
     19 C         140.1686  141.5093  167.2443 C.ar    1  UNL1       -0.0056
     20 C         139.8012  141.8470  165.8298 C.3     1  UNL1        0.1198
     21 C         142.3507  142.9869  170.2117 C.1     1  UNL1        0.1004
     22 N         143.2580  143.8945  170.9881 N.1     1  UNL1       -0.1908
     23 N         142.3688  141.1989  161.4488 N.3     1  UNL1       -0.2975
     24 H         142.0211  140.3119  161.0845 H       1  UNL1        0.1232
     25 C         144.5716  141.8725  162.6504 C.3     1  UNL1        0.1591
     26 C         145.6876  141.5441  163.5973 C.3     1  UNL1        0.1729
     27 O         145.7169  140.2137  164.2894 O.3     1  UNL1       -0.3511
     28 C         144.6302  139.2116  164.0347 C.3     1  UNL1        0.1437
     29 C         143.5141  139.5400  163.0878 C.3     1  UNL1        0.0503
     30 C         143.4848  140.8705  162.3957 C.3     1  UNL1        0.0865
     31 C         144.1826  144.4402  162.7264 C.3     1  UNL1        0.1742
     32 O         144.5422  143.2029  161.9583 O.3     1  UNL1       -0.3496
@<TRIPOS>BOND
     1    31    32    1
     2    32    25    1
     3    25    26    1
     4    26    27    1
     5    27    28    1
     6    28    29    1
     7    29    30    1
     8    30    23    1
     9     1    23    1
    10     1     2    1
    11     3     2    1
    12     3     4    1
    13     4     5    1
    14     5     6    1
    15     6     7    1
    16     7     9    1
    17     9    10    2
    18     9    11   am
    19    11    12    1
    20    12    13    1
    21    13    14    1
    22    14    15   ar
    23    15    16   ar
    24    16    17   ar
    25    17    21    1
    26    21    22    3
    27    17    18   ar
    28    18    19   ar
    29    19    20    1
    30     7     8    1
    31    30    25    1
    32     8     1    1
    33     7     3    1
    34    20    11    1
    35    19    14   ar
    36    23    24    1
@<TRIPOS>MOLECULE
*****
 32 36 0 0 0
SMALL
GASTEIGER

@<TRIPOS>ATOM
      1 C         141.1434  141.9544  161.9555 C.3     1  UNL1        0.0545
      2 C         140.8751  143.4111  161.7191 C.3     1  UNL1        0.0162
      3 C         139.5717  143.7551  162.3769 C.3     1  UNL1        0.0095
      4 C         138.6004  144.8680  162.6375 C.3     1  UNL1        0.0005
      5 C         137.4627  144.3117  163.4414 C.3     1  UNL1        0.0005
      6 C         137.7310  142.8549  163.6778 C.3     1  UNL1        0.0087
      7 C         139.0344  142.5109  163.0199 C.3     1  UNL1        0.0704
      8 C         140.0058  141.3980  162.7594 C.3     1  UNL1        0.0243
      9 C         138.4972  141.2668  163.6629 C.2     1  UNL1        0.2250
     10 O         137.5854  140.3582  162.8926 O.2     1  UNL1       -0.2749
     11 N         138.8716  140.9311  165.0761 N.am    1  UNL1       -0.2751
     12 C         138.3344  139.6870  165.7190 C.3     1  UNL1        0.0984
     13 C         138.7089  139.3514  167.1322 C.3     1  UNL1        0.0476
     14 C         139.6206  140.2599  167.9024 C.ar    1  UNL1       -0.0228
     15 C         139.9951  139.9243  169.3157 C.ar    1  UNL1       -0.0038
     16 C         140.9068  140.8329  170.0859 C.ar    1  UNL1        0.0099
     17 C         141.4441  142.0771  169.4429 C.ar    1  UNL1        0.0682
     18 C         141.0696  142.4126  168.0298 C.ar    1  UNL1        0.0074
     19 C         140.1579  141.5041  167.2595 C.ar    1  UNL1       -0.0056
     20 C         139.7834  141.8397  165.8463 C.3     1  UNL1        0.1198
     21 C         142.3558  142.9856  170.2132 C.1     1  UNL1        0.1004
     22 N         143.2675  143.8942  170.9834 N.1     1  UNL1       -0.1908
     23 N         142.3394  141.1884  161.4727 N.3     1  UNL1       -0.2975
     24 H         142.0017  140.2741  161.1719 H       1  UNL1        0.1232
     25 C         143.4907  139.7414  163.2976 C.3     1  UNL1        0.1591
     26 C         144.6459  139.4938  164.2219 C.3     1  UNL1        0.1729
     27 O         145.8050  140.4456  164.2453 O.3     1  UNL1       -0.3511
     28 C         145.8089  141.6451  163.3446 C.3     1  UNL1        0.1437
     29 C         144.6537  141.8927  162.4203 C.3     1  UNL1        0.0503
     30 C         143.4946  140.9408  162.3969 C.3     1  UNL1        0.0865
     31 C         141.7194  138.3214  164.5610 C.3     1  UNL1        0.1742
     32 O         142.3317  138.7896  163.2741 O.3     1  UNL1       -0.3496
@<TRIPOS>BOND
     1    31    32    1
     2    32    25    1
     3    25    26    1
     4    26    27    1
     5    27    28    1
     6    28    29    1
     7    29    30    1
     8    30    23    1
     9     1    23    1
    10     1     2    1
    11     3     2    1
    12     3     4    1
    13     4     5    1
    14     5     6    1
    15     6     7    1
    16     7     9    1
    17     9    10    2
    18     9    11   am
    19    11    12    1
    20    12    13    1
    21    13    14    1
    22    14    15   ar
    23    15    16   ar
    24    16    17   ar
    25    17    21    1
    26    21    22    3
    27    17    18   ar
    28    18    19   ar
    29    19    20    1
    30     7     8    1
    31    30    25    1
    32     8     1    1
    33     7     3    1
    34    20    11    1
    35    19    14   ar
    36    23    24    1
@<TRIPOS>MOLECULE
*****
 32 36 0 0 0
SMALL
GASTEIGER

@<TRIPOS>ATOM
      1 C         142.4649  143.3061  163.0750 C.3     1  UNL1        0.0545
      2 C         143.9422  143.3571  163.3295 C.3     1  UNL1        0.0162
      3 C         144.4240  141.9532  163.5461 C.3     1  UNL1        0.0095
      4 C         145.6348  141.1170  163.8373 C.3     1  UNL1        0.0005
      5 C         145.2034  139.6815  163.8966 C.3     1  UNL1        0.0005
      6 C         143.7261  139.6306  163.6421 C.3     1  UNL1        0.0087
      7 C         143.2443  141.0345  163.4255 C.3     1  UNL1        0.0704
      8 C         142.0335  141.8707  163.1344 C.3     1  UNL1        0.0243
      9 C         142.0647  140.1159  163.3049 C.2     1  UNL1        0.2250
     10 O         141.7974  139.4043  162.0118 O.2     1  UNL1       -0.2749
     11 N         141.1523  139.9088  164.4774 N.am    1  UNL1       -0.2751
     12 C         139.9727  138.9902  164.3568 C.3     1  UNL1        0.0984
     13 C         139.0604  138.7832  165.5293 C.3     1  UNL1        0.0476
     14 C         139.3277  139.4948  166.8224 C.ar    1  UNL1       -0.0228
     15 C         138.4153  139.2878  167.9950 C.ar    1  UNL1       -0.0038
     16 C         138.6827  139.9994  169.2881 C.ar    1  UNL1        0.0099
     17 C         139.8624  140.9181  169.4087 C.ar    1  UNL1        0.0682
     18 C         140.7747  141.1250  168.2362 C.ar    1  UNL1        0.0074
     19 C         140.5073  140.4134  166.9431 C.ar    1  UNL1       -0.0056
     20 C         141.4196  140.6204  165.7706 C.3     1  UNL1        0.1198
     21 C         140.1297  141.6297  170.7018 C.1     1  UNL1        0.1004
     22 N         140.3970  142.3413  171.9949 N.1     1  UNL1       -0.1908
     23 N         141.5750  144.4838  162.8081 N.3     1  UNL1       -0.2975
     24 H         142.0570  145.3057  163.1723 H       1  UNL1        0.1232
     25 C         139.0062  144.3060  162.4620 C.3     1  UNL1        0.1591
     26 C         137.6149  144.3368  163.0215 C.3     1  UNL1        0.1729
     27 O         137.4008  144.5761  164.4867 O.3     1  UNL1       -0.3511
     28 C         138.5782  144.7847  165.3925 C.3     1  UNL1        0.1437
     29 C         139.9696  144.7539  164.8329 C.3     1  UNL1        0.0503
     30 C         140.1836  144.5146  163.3676 C.3     1  UNL1        0.0865
     31 C         139.4097  142.6695  160.4848 C.3     1  UNL1        0.1742
     32 O         139.2203  144.0667  160.9968 O.3     1  UNL1       -0.3496
@<TRIPOS>BOND
     1    31    32    1
     2    32    25    1
     3    25    26    1
     4    26    27    1
     5    27    28    1
     6    28    29    1
     7    29    30    1
     8    30    23    1
     9     1    23    1
    10     1     2    1
    11     3     2    1
    12     3     4    1
    13     4     5    1
    14     5     6    1
    15     6     7    1
    16     7     9    1
    17     9    10    2
    18     9    11   am
    19    11    12    1
    20    12    13    1
    21    13    14    1
    22    14    15   ar
    23    15    16   ar
    24    16    17   ar
    25    17    21    1
    26    21    22    3
    27    17    18   ar
    28    18    19   ar
    29    19    20    1
    30     7     8    1
    31    30    25    1
    32     8     1    1
    33     7     3    1
    34    20    11    1
    35    19    14   ar
    36    23    24    1
@<TRIPOS>MOLECULE
*****
 32 36 0 0 0
SMALL
GASTEIGER

@<TRIPOS>ATOM
      1 C         139.2964  138.8866  165.8514 C.3     1  UNL1        0.0545
      2 C         138.4672  139.2877  167.0353 C.3     1  UNL1        0.0162
      3 C         139.3821  139.8929  168.0584 C.3     1  UNL1        0.0095
      4 C         139.4352  140.5148  169.4223 C.3     1  UNL1        0.0005
      5 C         140.8626  140.8721  169.7137 C.3     1  UNL1        0.0005
      6 C         141.6917  140.4710  168.5298 C.3     1  UNL1        0.0087
      7 C         140.7768  139.8659  167.5068 C.3     1  UNL1        0.0704
      8 C         140.7238  139.2439  166.1428 C.3     1  UNL1        0.0243
      9 C         142.1714  139.8388  166.9552 C.2     1  UNL1        0.2250
     10 O         143.1794  138.8771  167.5113 O.2     1  UNL1       -0.2749
     11 N         142.5581  140.7734  165.8474 N.am    1  UNL1       -0.2751
     12 C         143.9527  140.7463  165.2958 C.3     1  UNL1        0.0984
     13 C         144.3394  141.6809  164.1882 C.3     1  UNL1        0.0476
     14 C         143.3314  142.6426  163.6321 C.ar    1  UNL1       -0.0228
     15 C         143.7182  143.5772  162.5244 C.ar    1  UNL1       -0.0038
     16 C         142.7102  144.5389  161.9683 C.ar    1  UNL1        0.0099
     17 C         141.3155  144.5659  162.5199 C.ar    1  UNL1        0.0682
     18 C         140.9289  143.6313  163.6276 C.ar    1  UNL1        0.0074
     19 C         141.9368  142.6697  164.1837 C.ar    1  UNL1       -0.0056
     20 C         141.5502  141.7351  165.2914 C.3     1  UNL1        0.1198
     21 C         140.3076  145.5276  161.9639 C.1     1  UNL1        0.1004
     22 N         139.2996  146.4893  161.4078 N.1     1  UNL1       -0.1908
     23 N         138.7875  138.2415  164.5964 N.3     1  UNL1       -0.2975
     24 H         139.4210  137.4709  164.3838 H       1  UNL1        0.1232
     25 C         139.3947  138.6424  162.1023 C.3     1  UNL1        0.1591
     26 C         139.2584  139.4503  160.8459 C.3     1  UNL1        0.1729
     27 O         138.3788  140.6651  160.8270 O.3     1  UNL1       -0.3511
     28 C         137.6353  141.0721  162.0646 C.3     1  UNL1        0.1437
     29 C         137.7716  140.2643  163.3211 C.3     1  UNL1        0.0503
     30 C         138.6513  139.0494  163.3400 C.3     1  UNL1        0.0865
     31 C         141.6514  137.5078  162.7106 C.3     1  UNL1        0.1742
     32 O         140.2743  137.4276  162.1212 O.3     1  UNL1       -0.3496
@<TRIPOS>BOND
     1    31    32    1
     2    32    25    1
     3    25    26    1
     4    26    27    1
     5    27    28    1
     6    28    29    1
     7    29    30    1
     8    30    23    1
     9     1    23    1
    10     1     2    1
    11     3     2    1
    12     3     4    1
    13     4     5    1
    14     5     6    1
    15     6     7    1
    16     7     9    1
    17     9    10    2
    18     9    11   am
    19    11    12    1
    20    12    13    1
    21    13    14    1
    22    14    15   ar
    23    15    16   ar
    24    16    17   ar
    25    17    21    1
    26    21    22    3
    27    17    18   ar
    28    18    19   ar
    29    19    20    1
    30     7     8    1
    31    30    25    1
    32     8     1    1
    33     7     3    1
    34    20    11    1
    35    19    14   ar
    36    23    24    1
@<TRIPOS>MOLECULE
*****
 32 36 0 0 0
SMALL
GASTEIGER

@<TRIPOS>ATOM
      1 C         138.1998  142.2228  162.8876 C.3     1  UNL1        0.0545
      2 C         137.7178  143.5904  162.5040 C.3     1  UNL1        0.0162
      3 C         138.9196  144.4598  162.2809 C.3     1  UNL1        0.0095
      4 C         139.3645  145.8423  161.9059 C.3     1  UNL1        0.0005
      5 C         140.8643  145.8664  161.9198 C.3     1  UNL1        0.0005
      6 C         141.3463  144.4988  162.3035 C.3     1  UNL1        0.0087
      7 C         140.1445  143.6294  162.5266 C.3     1  UNL1        0.0704
      8 C         139.6996  142.2469  162.9016 C.3     1  UNL1        0.0243
      9 C         141.3692  142.7991  162.7724 C.2     1  UNL1        0.2250
     10 O         142.2221  142.3608  161.6189 O.2     1  UNL1       -0.2749
     11 N         141.7412  142.4069  164.1717 N.am    1  UNL1       -0.2751
     12 C         142.9659  141.5766  164.4174 C.3     1  UNL1        0.0984
     13 C         143.3378  141.1845  165.8167 C.3     1  UNL1        0.0476
     14 C         142.4849  141.6228  166.9702 C.ar    1  UNL1       -0.0228
     15 C         142.8569  141.2306  168.3695 C.ar    1  UNL1       -0.0038
     16 C         142.0040  141.6689  169.5229 C.ar    1  UNL1        0.0099
     17 C         140.7792  142.4993  169.2771 C.ar    1  UNL1        0.0682
     18 C         140.4073  142.8914  167.8779 C.ar    1  UNL1        0.0074
     19 C         141.2602  142.4531  166.7244 C.ar    1  UNL1       -0.0056
     20 C         140.8883  142.8452  165.3252 C.3     1  UNL1        0.1198
     21 C         139.9263  142.9375  170.4306 C.1     1  UNL1        0.1004
     22 N         139.0734  143.3758  171.5841 N.1     1  UNL1       -0.1908
     23 N         137.3341  141.0388  163.2021 N.3     1  UNL1       -0.2975
     24 H         136.5999  141.3690  163.8286 H       1  UNL1        0.1232
     25 C         138.3890  138.6743  162.9874 C.3     1  UNL1        0.1591
     26 C         138.9875  137.4560  163.6258 C.3     1  UNL1        0.1729
     27 O         139.1297  137.3839  165.1173 O.3     1  UNL1       -0.3511
     28 C         138.6733  138.5302  165.9704 C.3     1  UNL1        0.1437
     29 C         138.0747  139.7485  165.3321 C.3     1  UNL1        0.0503
     30 C         137.9326  139.8205  163.8405 C.3     1  UNL1        0.0865
     31 C         139.3600  138.2666  160.6123 C.3     1  UNL1        0.1742
     32 O         138.2468  138.7464  161.4959 O.3     1  UNL1       -0.3496
@<TRIPOS>BOND
     1    31    32    1
     2    32    25    1
     3    25    26    1
     4    26    27    1
     5    27    28    1
     6    28    29    1
     7    29    30    1
     8    30    23    1
     9     1    23    1
    10     1     2    1
    11     3     2    1
    12     3     4    1
    13     4     5    1
    14     5     6    1
    15     6     7    1
    16     7     9    1
    17     9    10    2
    18     9    11   am
    19    11    12    1
    20    12    13    1
    21    13    14    1
    22    14    15   ar
    23    15    16   ar
    24    16    17   ar
    25    17    21    1
    26    21    22    3
    27    17    18   ar
    28    18    19   ar
    29    19    20    1
    30     7     8    1
    31    30    25    1
    32     8     1    1
    33     7     3    1
    34    20    11    1
    35    19    14   ar
    36    23    24    1
@<TRIPOS>MOLECULE
*****
 32 36 0 0 0
SMALL
GASTEIGER

@<TRIPOS>ATOM
      1 C         142.9735  143.6724  161.6384 C.3     1  UNL1        0.0545
      2 C         144.1869  143.8916  162.4925 C.3     1  UNL1        0.0162
      3 C         144.6043  142.5648  163.0540 C.3     1  UNL1        0.0095
      4 C         145.6122  141.8802  163.9289 C.3     1  UNL1        0.0005
      5 C         145.2798  140.4179  163.9624 C.3     1  UNL1        0.0005
      6 C         144.0664  140.1987  163.1082 C.3     1  UNL1        0.0087
      7 C         143.6489  141.5255  162.5468 C.3     1  UNL1        0.0704
      8 C         142.6410  142.2101  161.6719 C.3     1  UNL1        0.0243
      9 C         142.6936  140.4863  162.0396 C.2     1  UNL1        0.2250
     10 O         142.8024  139.9930  160.6272 O.2     1  UNL1       -0.2749
     11 N         141.6293  139.9403  162.9448 N.am    1  UNL1       -0.2751
     12 C         140.6739  138.9011  162.4376 C.3     1  UNL1        0.0984
     13 C         139.6098  138.3552  163.3428 C.3     1  UNL1        0.0476
     14 C         139.5010  138.8484  164.7552 C.ar    1  UNL1       -0.0228
     15 C         138.4367  138.3025  165.6605 C.ar    1  UNL1       -0.0038
     16 C         138.3279  138.7957  167.0728 C.ar    1  UNL1        0.0099
     17 C         139.2834  139.8350  167.5800 C.ar    1  UNL1        0.0682
     18 C         140.3475  140.3809  166.6748 C.ar    1  UNL1        0.0074
     19 C         140.4563  139.8876  165.2624 C.ar    1  UNL1       -0.0056
     20 C         141.5205  140.4336  164.3572 C.3     1  UNL1        0.1198
     21 C         139.1746  140.3282  168.9924 C.1     1  UNL1        0.1004
     22 N         139.0658  140.8215  170.4048 N.1     1  UNL1       -0.1908
     23 N         142.2240  144.7299  160.8832 N.3     1  UNL1       -0.2975
     24 H         141.4899  145.0705  161.5039 H       1  UNL1        0.1232
     25 C         140.1032  144.0665  159.5371 C.3     1  UNL1        0.1591
     26 C         139.4454  143.7317  158.2313 C.3     1  UNL1        0.1729
     27 O         140.2506  143.7253  156.9657 O.3     1  UNL1       -0.3511
     28 C         141.7137  144.0538  157.0060 C.3     1  UNL1        0.1437
     29 C         142.3715  144.3886  158.3118 C.3     1  UNL1        0.0503
     30 C         141.5662  144.3950  159.5774 C.3     1  UNL1        0.0865
     31 C         138.7877  142.7830  161.3734 C.3     1  UNL1        0.1742
     32 O         139.2980  144.0729  160.8026 O.3     1  UNL1       -0.3496
@<TRIPOS>BOND
     1    31    32    1
     2    32    25    1
     3    25    26    1
     4    26    27    1
     5    27    28    1
     6    28    29    1
     7    29    30    1
     8    30    23    1
     9     1    23    1
    10     1     2    1
    11     3     2    1
    12     3     4    1
    13     4     5    1
    14     5     6    1
    15     6     7    1
    16     7     9    1
    17     9    10    2
    18     9    11   am
    19    11    12    1
    20    12    13    1
    21    13    14    1
    22    14    15   ar
    23    15    16   ar
    24    16    17   ar
    25    17    21    1
    26    21    22    3
    27    17    18   ar
    28    18    19   ar
    29    19    20    1
    30     7     8    1
    31    30    25    1
    32     8     1    1
    33     7     3    1
    34    20    11    1
    35    19    14   ar
    36    23    24    1
@<TRIPOS>MOLECULE
*****
 32 36 0 0 0
SMALL
GASTEIGER

@<TRIPOS>ATOM
      1 C         140.2375  141.9890  160.9602 C.3     1  UNL1        0.0545
      2 C         138.7772  141.6855  160.8007 C.3     1  UNL1        0.0162
      3 C         138.5550  140.2558  161.1965 C.3     1  UNL1        0.0095
      4 C         137.5153  139.1846  161.3426 C.3     1  UNL1        0.0005
      5 C         138.1956  137.9425  161.8369 C.3     1  UNL1        0.0005
      6 C         139.6559  138.2460  161.9964 C.3     1  UNL1        0.0087
      7 C         139.8781  139.6757  161.6006 C.3     1  UNL1        0.0704
      8 C         140.9178  140.7469  161.4546 C.3     1  UNL1        0.0243
      9 C         141.2010  139.0957  162.0047 C.2     1  UNL1        0.2250
     10 O         142.1100  138.5065  160.9671 O.2     1  UNL1       -0.2749
     11 N         141.6151  139.1049  163.4465 N.am    1  UNL1       -0.2751
     12 C         142.9380  138.5249  163.8505 C.3     1  UNL1        0.0984
     13 C         143.3520  138.5341  165.2922 C.3     1  UNL1        0.0476
     14 C         142.4430  139.1233  166.3298 C.ar    1  UNL1       -0.0228
     15 C         142.8571  139.1325  167.7716 C.ar    1  UNL1       -0.0038
     16 C         141.9481  139.7217  168.8092 C.ar    1  UNL1        0.0099
     17 C         140.6251  140.3018  168.4050 C.ar    1  UNL1        0.0682
     18 C         140.2111  140.2925  166.9633 C.ar    1  UNL1        0.0074
     19 C         141.1201  139.7033  165.9257 C.ar    1  UNL1       -0.0056
     20 C         140.7061  139.6941  164.4841 C.3     1  UNL1        0.1198
     21 C         139.7161  140.8910  169.4426 C.1     1  UNL1        0.1004
     22 N         138.8071  141.4802  170.4802 N.1     1  UNL1       -0.1908
     23 N         140.9010  143.3039  160.6753 N.3     1  UNL1       -0.2975
     24 H         141.4558  143.1764  159.8290 H       1  UNL1        0.1232
     25 C         141.2450  144.8543  162.7315 C.3     1  UNL1        0.1591
     26 C         142.1507  145.4743  163.7538 C.3     1  UNL1        0.1729
     27 O         143.6182  145.1640  163.7423 O.3     1  UNL1       -0.3511
     28 C         144.1800  144.2336  162.7085 C.3     1  UNL1        0.1437
     29 C         143.2743  143.6135  161.6861 C.3     1  UNL1        0.0503
     30 C         141.8067  143.9239  161.6977 C.3     1  UNL1        0.0865
     31 C         138.8478  144.3614  163.6036 C.3     1  UNL1        0.1742
     32 O         139.7775  145.1646  162.7430 O.3     1  UNL1       -0.3496
@<TRIPOS>BOND
     1    31    32    1
     2    32    25    1
     3    25    26    1
     4    26    27    1
     5    27    28    1
     6    28    29    1
     7    29    30    1
     8    30    23    1
     9     1    23    1
    10     1     2    1
    11     3     2    1
    12     3     4    1
    13     4     5    1
    14     5     6    1
    15     6     7    1
    16     7     9    1
    17     9    10    2
    18     9    11   am
    19    11    12    1
    20    12    13    1
    21    13    14    1
    22    14    15   ar
    23    15    16   ar
    24    16    17   ar
    25    17    21    1
    26    21    22    3
    27    17    18   ar
    28    18    19   ar
    29    19    20    1
    30     7     8    1
    31    30    25    1
    32     8     1    1
    33     7     3    1
    34    20    11    1
    35    19    14   ar
    36    23    24    1
@<TRIPOS>MOLECULE
*****
 32 36 0 0 0
SMALL
GASTEIGER

@<TRIPOS>ATOM
      1 C         141.9030  142.0506  161.6806 C.3     1  UNL1        0.0545
      2 C         143.2010  141.6227  161.0627 C.3     1  UNL1        0.0162
      3 C         143.3173  140.1347  161.2120 C.3     1  UNL1        0.0095
      4 C         144.1913  138.9506  160.9223 C.3     1  UNL1        0.0005
      5 C         143.5053  137.7270  161.4536 C.3     1  UNL1        0.0005
      6 C         142.2072  138.1549  162.0715 C.3     1  UNL1        0.0087
      7 C         142.0910  139.6429  161.9222 C.3     1  UNL1        0.0704
      8 C         141.2169  140.8270  162.2118 C.3     1  UNL1        0.0243
      9 C         140.8647  139.1512  162.6324 C.2     1  UNL1        0.2250
     10 O         139.8122  138.3960  161.8763 O.2     1  UNL1       -0.2749
     11 N         140.6910  139.4146  164.0989 N.am    1  UNL1       -0.2751
     12 C         139.4647  138.9229  164.8091 C.3     1  UNL1        0.0984
     13 C         139.2911  139.1863  166.2755 C.3     1  UNL1        0.0476
     14 C         140.3436  139.9415  167.0317 C.ar    1  UNL1       -0.0228
     15 C         140.1699  140.2050  168.4982 C.ar    1  UNL1       -0.0038
     16 C         141.2224  140.9602  169.2544 C.ar    1  UNL1        0.0099
     17 C         142.4487  141.4519  168.5441 C.ar    1  UNL1        0.0682
     18 C         142.6224  141.1884  167.0777 C.ar    1  UNL1        0.0074
     19 C         141.5699  140.4333  166.3215 C.ar    1  UNL1       -0.0056
     20 C         141.7435  140.1698  164.8551 C.3     1  UNL1        0.1198
     21 C         143.5013  142.2071  169.3002 C.1     1  UNL1        0.1004
     22 N         144.5539  142.9623  170.0564 N.1     1  UNL1       -0.1908
     23 N         141.3823  143.4555  161.7544 N.3     1  UNL1       -0.2975
     24 H         142.1694  144.0477  162.0191 H       1  UNL1        0.1232
     25 C         138.8473  143.8394  162.1742 C.3     1  UNL1        0.1591
     26 C         137.7210  144.1738  163.1068 C.3     1  UNL1        0.1729
     27 O         138.0034  144.4586  164.5521 O.3     1  UNL1       -0.3511
     28 C         139.4122  144.4090  165.0650 C.3     1  UNL1        0.1437
     29 C         140.5385  144.0747  164.1324 C.3     1  UNL1        0.0503
     30 C         140.2560  143.7898  162.6870 C.3     1  UNL1        0.0865
     31 C         138.3905  142.1392  160.2635 C.3     1  UNL1        0.1742
     32 O         138.5648  143.5546  160.7289 O.3     1  UNL1       -0.3496
@<TRIPOS>BOND
     1    31    32    1
     2    32    25    1
     3    25    26    1
     4    26    27    1
     5    27    28    1
     6    28    29    1
     7    29    30    1
     8    30    23    1
     9     1    23    1
    10     1     2    1
    11     3     2    1
    12     3     4    1
    13     4     5    1
    14     5     6    1
    15     6     7    1
    16     7     9    1
    17     9    10    2
    18     9    11   am
    19    11    12    1
    20    12    13    1
    21    13    14    1
    22    14    15   ar
    23    15    16   ar
    24    16    17   ar
    25    17    21    1
    26    21    22    3
    27    17    18   ar
    28    18    19   ar
    29    19    20    1
    30     7     8    1
    31    30    25    1
    32     8     1    1
    33     7     3    1
    34    20    11    1
    35    19    14   ar
    36    23    24    1
