@<TRIPOS>MOLECULE
*****
 33 37 0 0 0
SMALL
GASTEIGER

@<TRIPOS>ATOM
      1 C         139.7538  144.6300  162.4807 C.ar    1  UNL1        0.2224
      2 N         140.6041  145.1137  163.6179 N.ar    1  UNL1       -0.1127
      3 N         140.5316  144.0953  164.7167 N.ar    1  UNL1       -0.1273
      4 C         139.6365  142.9821  164.2587 C.ar    1  UNL1        0.1704
      5 N         139.1559  143.3127  162.8768 N.ar    1  UNL1       -0.2796
      6 C         138.2425  142.5196  161.9897 C.3     1  UNL1        0.1574
      7 C         137.5841  141.2003  162.2654 C.3     1  UNL1        0.2299
      8 O         137.6766  140.3482  163.4964 O.3     1  UNL1       -0.4733
      9 C         138.4503  140.6048  164.7556 C.ar    1  UNL1        0.1415
     10 C         138.2687  139.4934  165.7465 C.ar    1  UNL1        0.0370
     11 C         138.9594  139.5542  167.0766 C.ar    1  UNL1        0.0031
     12 C         139.8316  140.7265  167.4158 C.ar    1  UNL1        0.0004
     13 C         140.0132  141.8379  166.4250 C.ar    1  UNL1        0.0061
     14 C         139.3225  141.7770  165.0949 C.ar    1  UNL1        0.0699
     15 C         140.5223  140.7873  168.7460 C.ar    1  UNL1        0.0031
     16 C         141.6968  139.8962  169.0227 C.ar    1  UNL1        0.0207
     17 C         142.3875  139.9571  170.3529 C.ar    1  UNL1        0.0989
     18 N         141.9036  140.9089  171.4064 N.ar    1  UNL1       -0.2423
     19 C         140.7290  141.8000  171.1296 C.ar    1  UNL1        0.0989
     20 C         140.0384  141.7391  169.7995 C.ar    1  UNL1        0.0207
     21 N         139.5393  145.3392  161.1765 N.pl3   1  UNL1       -0.2825
     22 H         138.8024  145.9854  161.0829 H       1  UNL1        0.1551
     23 C         141.1321  145.4871  157.5446 C.ar    1  UNL1        0.1480
     24 C         142.2635  144.5133  157.6913 C.ar    1  UNL1        0.0373
     25 C         142.4868  143.8147  158.9999 C.ar    1  UNL1        0.0044
     26 C         141.5787  144.0901  160.1616 C.ar    1  UNL1        0.0149
     27 C         140.4473  145.0639  160.0148 C.ar    1  UNL1        0.0535
     28 C         140.2241  145.7625  158.7063 C.ar    1  UNL1        0.0518
     29 O         140.9088  146.1857  156.2360 O.3     1  UNL1       -0.4044
     30 F         138.1344  146.4325  155.1216 F       1  UNL1       -0.1328
     31 C         139.5217  146.3091  155.6789 C.3     1  UNL1        0.5753
     32 F         139.6250  147.8037  155.7525 F       1  UNL1       -0.1328
     33 F         139.4183  144.8145  155.6052 F       1  UNL1       -0.1328
@<TRIPOS>BOND
     1    30    31    1
     2    31    32    1
     3    31    33    1
     4    31    29    1
     5    29    23    1
     6    23    24   ar
     7    24    25   ar
     8    25    26   ar
     9    26    27   ar
    10    27    21    1
    11    21     1    1
    12     1     2   ar
    13     2     3   ar
    14     3     4   ar
    15     4     5   ar
    16     5     6    1
    17     6     7    1
    18     7     8    1
    19     8     9    1
    20     9    10   ar
    21    10    11   ar
    22    11    12   ar
    23    12    15    1
    24    15    16   ar
    25    16    17   ar
    26    17    18   ar
    27    18    19   ar
    28    19    20   ar
    29    12    13   ar
    30    13    14   ar
    31    27    28   ar
    32    28    23   ar
    33     5     1   ar
    34    14     9   ar
    35    14     4    1
    36    20    15   ar
    37    21    22    1
@<TRIPOS>MOLECULE
*****
 33 37 0 0 0
SMALL
GASTEIGER

@<TRIPOS>ATOM
      1 C         139.7839  144.4834  162.4119 C.ar    1  UNL1        0.2224
      2 N         140.6228  145.0016  163.5423 N.ar    1  UNL1       -0.1127
      3 N         140.5392  144.0169  164.6708 N.ar    1  UNL1       -0.1273
      4 C         139.6486  142.8902  164.2378 C.ar    1  UNL1        0.1704
      5 N         139.1819  143.1786  162.8417 N.ar    1  UNL1       -0.2796
      6 C         138.2774  142.3588  161.9700 C.3     1  UNL1        0.1574
      7 C         137.6162  141.0483  162.2790 C.3     1  UNL1        0.2299
      8 O         137.6963  140.2339  163.5361 O.3     1  UNL1       -0.4733
      9 C         138.4573  140.5288  164.7947 C.ar    1  UNL1        0.1415
     10 C         138.2658  139.4479  165.8169 C.ar    1  UNL1        0.0370
     11 C         138.9431  139.5492  167.1514 C.ar    1  UNL1        0.0031
     12 C         139.8120  140.7314  167.4637 C.ar    1  UNL1        0.0004
     13 C         140.0035  141.8123  166.4415 C.ar    1  UNL1        0.0061
     14 C         139.3262  141.7110  165.1070 C.ar    1  UNL1        0.0699
     15 C         140.4893  140.8327  168.7983 C.ar    1  UNL1        0.0031
     16 C         140.0167  141.8395  169.8047 C.ar    1  UNL1        0.0207
     17 C         140.6940  141.9408  171.1393 C.ar    1  UNL1        0.0989
     18 N         141.8439  141.0352  171.4673 N.ar    1  UNL1       -0.2423
     19 C         142.3165  140.0283  170.4608 C.ar    1  UNL1        0.0989
     20 C         141.6392  139.9271  169.1263 C.ar    1  UNL1        0.0207
     21 N         139.5825  145.1527  161.0847 N.pl3   1  UNL1       -0.2825
     22 H         138.8093  145.7460  160.9448 H       1  UNL1        0.1551
     23 C         142.6396  143.6823  159.0252 C.ar    1  UNL1        0.1480
     24 C         142.5121  144.4490  157.7423 C.ar    1  UNL1        0.0373
     25 C         141.4080  145.4503  157.5735 C.ar    1  UNL1        0.0044
     26 C         140.4315  145.6849  158.6876 C.ar    1  UNL1        0.0149
     27 C         140.5590  144.9182  159.9706 C.ar    1  UNL1        0.0535
     28 C         141.6631  143.9169  160.1393 C.ar    1  UNL1        0.0518
     29 O         143.7437  142.6811  159.1940 O.3     1  UNL1       -0.4044
     30 F         144.1317  141.3062  161.8320 F       1  UNL1       -0.1328
     31 C         143.9377  141.9936  160.5129 C.3     1  UNL1        0.5753
     32 F         144.7823  143.1395  160.9860 F       1  UNL1       -0.1328
     33 F         143.0931  140.8478  160.0400 F       1  UNL1       -0.1328
@<TRIPOS>BOND
     1    30    31    1
     2    31    32    1
     3    31    33    1
     4    31    29    1
     5    29    23    1
     6    23    24   ar
     7    24    25   ar
     8    25    26   ar
     9    26    27   ar
    10    27    21    1
    11    21     1    1
    12     1     2   ar
    13     2     3   ar
    14     3     4   ar
    15     4     5   ar
    16     5     6    1
    17     6     7    1
    18     7     8    1
    19     8     9    1
    20     9    10   ar
    21    10    11   ar
    22    11    12   ar
    23    12    15    1
    24    15    16   ar
    25    16    17   ar
    26    17    18   ar
    27    18    19   ar
    28    19    20   ar
    29    12    13   ar
    30    13    14   ar
    31    27    28   ar
    32    28    23   ar
    33     5     1   ar
    34    14     9   ar
    35    14     4    1
    36    20    15   ar
    37    21    22    1
@<TRIPOS>MOLECULE
*****
 33 37 0 0 0
SMALL
GASTEIGER

@<TRIPOS>ATOM
      1 C         143.4710  138.5222  162.8332 C.ar    1  UNL1        0.2224
      2 N         144.2098  139.2450  163.9202 N.ar    1  UNL1       -0.1127
      3 N         143.2385  139.5387  165.0248 N.ar    1  UNL1       -0.1273
      4 C         141.8992  138.9974  164.6204 C.ar    1  UNL1        0.1704
      5 N         142.0430  138.3693  163.2659 N.ar    1  UNL1       -0.2796
      6 C         140.9951  137.6922  162.4331 C.3     1  UNL1        0.1574
      7 C         139.5447  137.4762  162.7490 C.3     1  UNL1        0.2299
      8 O         138.7841  137.8838  163.9758 O.3     1  UNL1       -0.4733
      9 C         139.2858  138.6082  165.1898 C.ar    1  UNL1        0.1415
     10 C         138.1909  138.8204  166.1928 C.ar    1  UNL1        0.0370
     11 C         138.4824  139.5283  167.4827 C.ar    1  UNL1        0.0031
     12 C         139.8688  140.0239  167.7696 C.ar    1  UNL1        0.0004
     13 C         140.9637  139.8117  166.7666 C.ar    1  UNL1        0.0061
     14 C         140.6722  139.1038  165.4767 C.ar    1  UNL1        0.0699
     15 C         140.1603  140.7318  169.0596 C.ar    1  UNL1        0.0031
     16 C         140.1052  142.2294  169.1223 C.ar    1  UNL1        0.0207
     17 C         140.3967  142.9373  170.4123 C.ar    1  UNL1        0.0989
     18 N         140.7433  142.1475  171.6395 N.ar    1  UNL1       -0.2423
     19 C         140.7984  140.6498  171.5768 C.ar    1  UNL1        0.0989
     20 C         140.5069  139.9420  170.2868 C.ar    1  UNL1        0.0207
     21 N         144.0573  138.0376  161.5403 N.pl3   1  UNL1       -0.2825
     22 H         144.7415  137.3297  161.5448 H       1  UNL1        0.1551
     23 C         143.4858  140.6467  158.6051 C.ar    1  UNL1        0.1480
     24 C         142.6885  139.8189  157.6412 C.ar    1  UNL1        0.0373
     25 C         142.3476  138.3973  157.9770 C.ar    1  UNL1        0.0044
     26 C         142.8038  137.8035  159.2767 C.ar    1  UNL1        0.0149
     27 C         143.6010  138.6313  160.2406 C.ar    1  UNL1        0.0535
     28 C         143.9420  140.0530  159.9048 C.ar    1  UNL1        0.0518
     29 O         143.8268  142.0684  158.2693 O.3     1  UNL1       -0.4044
     30 F         146.5934  142.7691  157.3446 F       1  UNL1       -0.1328
     31 C         145.2100  142.4187  157.8070 C.3     1  UNL1        0.5753
     32 F         144.8406  142.0292  156.4063 F       1  UNL1       -0.1328
     33 F         145.5795  142.8083  159.2076 F       1  UNL1       -0.1328
@<TRIPOS>BOND
     1    30    31    1
     2    31    32    1
     3    31    33    1
     4    31    29    1
     5    29    23    1
     6    23    24   ar
     7    24    25   ar
     8    25    26   ar
     9    26    27   ar
    10    27    21    1
    11    21     1    1
    12     1     2   ar
    13     2     3   ar
    14     3     4   ar
    15     4     5   ar
    16     5     6    1
    17     6     7    1
    18     7     8    1
    19     8     9    1
    20     9    10   ar
    21    10    11   ar
    22    11    12   ar
    23    12    15    1
    24    15    16   ar
    25    16    17   ar
    26    17    18   ar
    27    18    19   ar
    28    19    20   ar
    29    12    13   ar
    30    13    14   ar
    31    27    28   ar
    32    28    23   ar
    33     5     1   ar
    34    14     9   ar
    35    14     4    1
    36    20    15   ar
    37    21    22    1
@<TRIPOS>MOLECULE
*****
 33 37 0 0 0
SMALL
GASTEIGER

@<TRIPOS>ATOM
      1 C         143.5487  138.5855  162.6991 C.ar    1  UNL1        0.2224
      2 N         144.3327  139.2852  163.7695 N.ar    1  UNL1       -0.1127
      3 N         143.4062  139.5632  164.9160 N.ar    1  UNL1       -0.1273
      4 C         142.0496  139.0352  164.5541 C.ar    1  UNL1        0.1704
      5 N         142.1378  138.4309  163.1840 N.ar    1  UNL1       -0.2796
      6 C         141.0550  137.7736  162.3804 C.3     1  UNL1        0.1574
      7 C         139.6169  137.5582  162.7484 C.3     1  UNL1        0.2299
      8 O         138.9063  137.9470  164.0109 O.3     1  UNL1       -0.4733
      9 C         139.4582  138.6471  165.2172 C.ar    1  UNL1        0.1415
     10 C         138.4040  138.8460  166.2655 C.ar    1  UNL1        0.0370
     11 C         138.7487  139.5291  167.5556 C.ar    1  UNL1        0.0031
     12 C         140.1476  140.0134  167.7974 C.ar    1  UNL1        0.0004
     13 C         141.2019  139.8146  166.7491 C.ar    1  UNL1        0.0061
     14 C         140.8571  139.1314  165.4590 C.ar    1  UNL1        0.0699
     15 C         140.4923  140.6967  169.0876 C.ar    1  UNL1        0.0031
     16 C         141.5611  140.1297  169.9743 C.ar    1  UNL1        0.0207
     17 C         141.9058  140.8129  171.2645 C.ar    1  UNL1        0.0989
     18 N         141.1817  142.0631  171.6679 N.ar    1  UNL1       -0.2423
     19 C         140.1129  142.6300  170.7811 C.ar    1  UNL1        0.0989
     20 C         139.7682  141.9468  169.4910 C.ar    1  UNL1        0.0207
     21 N         144.0821  138.1217  161.3761 N.pl3   1  UNL1       -0.2825
     22 H         144.8620  137.5218  161.3427 H       1  UNL1        0.1551
     23 C         142.3425  138.0106  157.8108 C.ar    1  UNL1        0.1480
     24 C         142.1176  139.4722  157.5595 C.ar    1  UNL1        0.0373
     25 C         142.5475  140.4836  158.5804 C.ar    1  UNL1        0.0044
     26 C         143.2024  140.0335  159.8526 C.ar    1  UNL1        0.0149
     27 C         143.4273  138.5719  160.1039 C.ar    1  UNL1        0.0535
     28 C         142.9973  137.5605  159.0830 C.ar    1  UNL1        0.0518
     29 O         141.9125  136.9992  156.7899 O.3     1  UNL1       -0.4044
     30 F         143.9473  135.2116  155.4998 F       1  UNL1       -0.1328
     31 C         142.9298  136.1055  156.1449 C.3     1  UNL1        0.5753
     32 F         143.4267  137.2609  155.3274 F       1  UNL1       -0.1328
     33 F         142.4331  134.9500  156.9623 F       1  UNL1       -0.1328
@<TRIPOS>BOND
     1    30    31    1
     2    31    32    1
     3    31    33    1
     4    31    29    1
     5    29    23    1
     6    23    24   ar
     7    24    25   ar
     8    25    26   ar
     9    26    27   ar
    10    27    21    1
    11    21     1    1
    12     1     2   ar
    13     2     3   ar
    14     3     4   ar
    15     4     5   ar
    16     5     6    1
    17     6     7    1
    18     7     8    1
    19     8     9    1
    20     9    10   ar
    21    10    11   ar
    22    11    12   ar
    23    12    15    1
    24    15    16   ar
    25    16    17   ar
    26    17    18   ar
    27    18    19   ar
    28    19    20   ar
    29    12    13   ar
    30    13    14   ar
    31    27    28   ar
    32    28    23   ar
    33     5     1   ar
    34    14     9   ar
    35    14     4    1
    36    20    15   ar
    37    21    22    1
@<TRIPOS>MOLECULE
*****
 33 37 0 0 0
SMALL
GASTEIGER

@<TRIPOS>ATOM
      1 C         138.6359  143.0966  162.1689 C.ar    1  UNL1        0.2224
      2 N         137.7577  143.0099  163.3818 N.ar    1  UNL1       -0.1127
      3 N         138.6416  142.8604  164.5844 N.ar    1  UNL1       -0.1273
      4 C         140.0662  142.8548  164.1148 C.ar    1  UNL1        0.1704
      5 N         140.0626  143.0008  162.6219 N.ar    1  UNL1       -0.2796
      6 C         141.2325  143.0501  161.6843 C.3     1  UNL1        0.1574
      7 C         142.6947  142.9656  162.0079 C.3     1  UNL1        0.2299
      8 O         143.3482  142.8109  163.3492 O.3     1  UNL1       -0.4733
      9 C         142.7010  142.7025  164.6981 C.ar    1  UNL1        0.1415
     10 C         143.7232  142.5592  165.7865 C.ar    1  UNL1        0.0370
     11 C         143.2846  142.4354  167.2155 C.ar    1  UNL1        0.0031
     12 C         141.8240  142.4550  167.5562 C.ar    1  UNL1        0.0004
     13 C         140.8018  142.5983  166.4679 C.ar    1  UNL1        0.0061
     14 C         141.2403  142.7220  165.0388 C.ar    1  UNL1        0.0699
     15 C         141.3855  142.3312  168.9854 C.ar    1  UNL1        0.0031
     16 C         140.2515  143.1690  169.4973 C.ar    1  UNL1        0.0207
     17 C         139.8130  143.0452  170.9265 C.ar    1  UNL1        0.0989
     18 N         140.5086  142.0835  171.8437 N.ar    1  UNL1       -0.2423
     19 C         141.6426  141.2456  171.3318 C.ar    1  UNL1        0.0989
     20 C         142.0810  141.3695  169.9027 C.ar    1  UNL1        0.0207
     21 N         138.1693  143.2520  160.7518 N.pl3   1  UNL1       -0.2825
     22 H         137.6955  144.0698  160.4764 H       1  UNL1        0.1551
     23 C         138.9554  139.6731  159.2274 C.ar    1  UNL1        0.1480
     24 C         138.9354  139.9797  157.7592 C.ar    1  UNL1        0.0373
     25 C         138.6599  141.3771  157.2886 C.ar    1  UNL1        0.0044
     26 C         138.4046  142.4678  158.2861 C.ar    1  UNL1        0.0149
     27 C         138.4247  142.1613  159.7543 C.ar    1  UNL1        0.0535
     28 C         138.7001  140.7638  160.2249 C.ar    1  UNL1        0.0518
     29 O         139.2308  138.2757  159.6981 O.3     1  UNL1       -0.4044
     30 F         140.5688  137.8205  162.3444 F       1  UNL1       -0.1328
     31 C         139.8998  138.0481  161.0212 C.3     1  UNL1        0.5753
     32 F         141.2327  138.3379  160.3972 F       1  UNL1       -0.1328
     33 F         138.5669  137.7583  161.6453 F       1  UNL1       -0.1328
@<TRIPOS>BOND
     1    30    31    1
     2    31    32    1
     3    31    33    1
     4    31    29    1
     5    29    23    1
     6    23    24   ar
     7    24    25   ar
     8    25    26   ar
     9    26    27   ar
    10    27    21    1
    11    21     1    1
    12     1     2   ar
    13     2     3   ar
    14     3     4   ar
    15     4     5   ar
    16     5     6    1
    17     6     7    1
    18     7     8    1
    19     8     9    1
    20     9    10   ar
    21    10    11   ar
    22    11    12   ar
    23    12    15    1
    24    15    16   ar
    25    16    17   ar
    26    17    18   ar
    27    18    19   ar
    28    19    20   ar
    29    12    13   ar
    30    13    14   ar
    31    27    28   ar
    32    28    23   ar
    33     5     1   ar
    34    14     9   ar
    35    14     4    1
    36    20    15   ar
    37    21    22    1
@<TRIPOS>MOLECULE
*****
 33 37 0 0 0
SMALL
GASTEIGER

@<TRIPOS>ATOM
      1 C         142.7962  143.5220  162.1555 C.ar    1  UNL1        0.2224
      2 N         142.1621  144.2837  163.2814 N.ar    1  UNL1       -0.1127
      3 N         142.1385  143.3932  164.4882 N.ar    1  UNL1       -0.1273
      4 C         142.7580  142.0810  164.1081 C.ar    1  UNL1        0.1704
      5 N         143.1645  142.1608  162.6664 N.ar    1  UNL1       -0.2796
      6 C         143.8240  141.1115  161.8213 C.3     1  UNL1        0.1574
      7 C         144.2399  139.7234  162.2092 C.3     1  UNL1        0.2299
      8 O         144.0990  139.0419  163.5379 O.3     1  UNL1       -0.4733
      9 C         143.5074  139.5799  164.8070 C.ar    1  UNL1        0.1415
     10 C         143.5627  138.5655  165.9106 C.ar    1  UNL1        0.0370
     11 C         143.0212  138.9037  167.2679 C.ar    1  UNL1        0.0031
     12 C         142.4244  140.2563  167.5217 C.ar    1  UNL1        0.0004
     13 C         142.3691  141.2707  166.4181 C.ar    1  UNL1        0.0061
     14 C         142.9106  140.9325  165.0608 C.ar    1  UNL1        0.0699
     15 C         141.8829  140.5945  168.8791 C.ar    1  UNL1        0.0031
     16 C         142.5280  141.6743  169.6962 C.ar    1  UNL1        0.0207
     17 C         141.9865  142.0124  171.0537 C.ar    1  UNL1        0.0989
     18 N         140.7999  141.2707  171.5938 N.ar    1  UNL1       -0.2423
     19 C         140.1548  140.1909  170.7766 C.ar    1  UNL1        0.0989
     20 C         140.6963  139.8528  169.4193 C.ar    1  UNL1        0.0207
     21 N         143.0222  144.0322  160.7631 N.pl3   1  UNL1       -0.2825
     22 H         143.9054  144.3818  160.5043 H       1  UNL1        0.1551
     23 C         140.3412  145.2595  158.1069 C.ar    1  UNL1        0.1480
     24 C         139.6636  143.9646  157.7690 C.ar    1  UNL1        0.0373
     25 C         140.1055  142.6923  158.4292 C.ar    1  UNL1        0.0044
     26 C         141.2251  142.7148  159.4272 C.ar    1  UNL1        0.0149
     27 C         141.9027  144.0096  159.7651 C.ar    1  UNL1        0.0535
     28 C         141.4608  145.2820  159.1049 C.ar    1  UNL1        0.0518
     29 O         139.8993  146.5318  157.4467 O.3     1  UNL1       -0.4044
     30 F         139.9180  146.7545  154.4550 F       1  UNL1       -0.1328
     31 C         139.9087  146.6432  155.9509 C.3     1  UNL1        0.5753
     32 F         138.4543  147.0099  155.9690 F       1  UNL1       -0.1328
     33 F         141.3630  146.2765  155.9327 F       1  UNL1       -0.1328
@<TRIPOS>BOND
     1    30    31    1
     2    31    32    1
     3    31    33    1
     4    31    29    1
     5    29    23    1
     6    23    24   ar
     7    24    25   ar
     8    25    26   ar
     9    26    27   ar
    10    27    21    1
    11    21     1    1
    12     1     2   ar
    13     2     3   ar
    14     3     4   ar
    15     4     5   ar
    16     5     6    1
    17     6     7    1
    18     7     8    1
    19     8     9    1
    20     9    10   ar
    21    10    11   ar
    22    11    12   ar
    23    12    15    1
    24    15    16   ar
    25    16    17   ar
    26    17    18   ar
    27    18    19   ar
    28    19    20   ar
    29    12    13   ar
    30    13    14   ar
    31    27    28   ar
    32    28    23   ar
    33     5     1   ar
    34    14     9   ar
    35    14     4    1
    36    20    15   ar
    37    21    22    1
@<TRIPOS>MOLECULE
*****
 33 37 0 0 0
SMALL
GASTEIGER

@<TRIPOS>ATOM
      1 C         142.7983  143.6390  162.3190 C.ar    1  UNL1        0.2224
      2 N         142.1262  144.3338  163.4660 N.ar    1  UNL1       -0.1127
      3 N         142.1114  143.3925  164.6338 N.ar    1  UNL1       -0.1273
      4 C         142.7744  142.1159  164.2084 C.ar    1  UNL1        0.1704
      5 N         143.1989  142.2684  162.7779 N.ar    1  UNL1       -0.2796
      6 C         143.9007  141.2752  161.8997 C.3     1  UNL1        0.1574
      7 C         144.3514  139.8844  162.2352 C.3     1  UNL1        0.2299
      8 O         144.2115  139.1432  163.5318 O.3     1  UNL1       -0.4733
      9 C         143.5864  139.6097  164.8131 C.ar    1  UNL1        0.1415
     10 C         143.6555  138.5514  165.8737 C.ar    1  UNL1        0.0370
     11 C         143.0851  138.8160  167.2355 C.ar    1  UNL1        0.0031
     12 C         142.4455  140.1389  167.5367 C.ar    1  UNL1        0.0004
     13 C         142.3764  141.1973  166.4760 C.ar    1  UNL1        0.0061
     14 C         142.9468  140.9327  165.1142 C.ar    1  UNL1        0.0699
     15 C         141.8750  140.4035  168.8985 C.ar    1  UNL1        0.0031
     16 C         140.4662  139.9963  169.2136 C.ar    1  UNL1        0.0207
     17 C         139.8957  140.2609  170.5754 C.ar    1  UNL1        0.0989
     18 N         140.7341  140.9326  171.6222 N.ar    1  UNL1       -0.2423
     19 C         142.1431  141.3398  171.3071 C.ar    1  UNL1        0.0989
     20 C         142.7135  141.0752  169.9453 C.ar    1  UNL1        0.0207
     21 N         143.0293  144.2141  160.9530 N.pl3   1  UNL1       -0.2825
     22 H         143.8639  144.6983  160.7574 H       1  UNL1        0.1551
     23 C         139.5807  143.3850  159.1728 C.ar    1  UNL1        0.1480
     24 C         139.9072  143.7265  157.7492 C.ar    1  UNL1        0.0373
     25 C         141.2745  144.2307  157.3935 C.ar    1  UNL1        0.0044
     26 C         142.3151  144.3932  158.4614 C.ar    1  UNL1        0.0149
     27 C         141.9886  144.0516  159.8851 C.ar    1  UNL1        0.0535
     28 C         140.6213  143.5475  160.2407 C.ar    1  UNL1        0.0518
     29 O         138.2134  142.8809  159.5284 O.3     1  UNL1       -0.4044
     30 F         137.8891  140.8130  161.6776 F       1  UNL1       -0.1328
     31 C         138.0512  141.8470  160.6029 C.3     1  UNL1        0.5753
     32 F         137.5823  142.9084  161.5536 F       1  UNL1       -0.1328
     33 F         138.5201  140.7855  159.6525 F       1  UNL1       -0.1328
@<TRIPOS>BOND
     1    30    31    1
     2    31    32    1
     3    31    33    1
     4    31    29    1
     5    29    23    1
     6    23    24   ar
     7    24    25   ar
     8    25    26   ar
     9    26    27   ar
    10    27    21    1
    11    21     1    1
    12     1     2   ar
    13     2     3   ar
    14     3     4   ar
    15     4     5   ar
    16     5     6    1
    17     6     7    1
    18     7     8    1
    19     8     9    1
    20     9    10   ar
    21    10    11   ar
    22    11    12   ar
    23    12    15    1
    24    15    16   ar
    25    16    17   ar
    26    17    18   ar
    27    18    19   ar
    28    19    20   ar
    29    12    13   ar
    30    13    14   ar
    31    27    28   ar
    32    28    23   ar
    33     5     1   ar
    34    14     9   ar
    35    14     4    1
    36    20    15   ar
    37    21    22    1
@<TRIPOS>MOLECULE
*****
 33 37 0 0 0
SMALL
GASTEIGER

@<TRIPOS>ATOM
      1 C         138.3627  139.9406  161.9543 C.ar    1  UNL1        0.2224
      2 N         137.6469  140.5278  163.1344 N.ar    1  UNL1       -0.1127
      3 N         138.5343  140.3810  164.3349 N.ar    1  UNL1       -0.1273
      4 C         139.7985  139.7030  163.8965 C.ar    1  UNL1        0.1704
      5 N         139.6924  139.4308  162.4253 N.ar    1  UNL1       -0.2796
      6 C         140.6925  138.7729  161.5214 C.3     1  UNL1        0.1574
      7 C         142.0457  138.2246  161.8656 C.3     1  UNL1        0.2299
      8 O         142.7328  138.1989  163.1986 O.3     1  UNL1       -0.4733
      9 C         142.2367  138.7151  164.5168 C.ar    1  UNL1        0.1415
     10 C         143.2420  138.4898  165.6070 C.ar    1  UNL1        0.0370
     11 C         142.9414  138.9340  167.0078 C.ar    1  UNL1        0.0031
     12 C         141.6355  139.6033  167.3184 C.ar    1  UNL1        0.0004
     13 C         140.6302  139.8286  166.2282 C.ar    1  UNL1        0.0061
     14 C         140.9308  139.3844  164.8274 C.ar    1  UNL1        0.0699
     15 C         141.3349  140.0475  168.7193 C.ar    1  UNL1        0.0031
     16 C         139.9121  140.1700  169.1782 C.ar    1  UNL1        0.0207
     17 C         139.6115  140.6142  170.5791 C.ar    1  UNL1        0.0989
     18 N         140.7337  140.9358  171.5210 N.ar    1  UNL1       -0.2423
     19 C         142.1565  140.8132  171.0620 C.ar    1  UNL1        0.0989
     20 C         142.4571  140.3691  169.6612 C.ar    1  UNL1        0.0207
     21 N         137.8404  139.8747  160.5496 N.pl3   1  UNL1       -0.2825
     22 H         137.2124  139.1621  160.2909 H       1  UNL1        0.1551
     23 C         139.2017  143.2571  158.9824 C.ar    1  UNL1        0.1480
     24 C         139.1439  142.9347  157.5186 C.ar    1  UNL1        0.0373
     25 C         138.6516  141.5923  157.0652 C.ar    1  UNL1        0.0044
     26 C         138.2171  140.5723  158.0755 C.ar    1  UNL1        0.0149
     27 C         138.2749  140.8947  159.5393 C.ar    1  UNL1        0.0535
     28 C         138.7672  142.2371  159.9927 C.ar    1  UNL1        0.0518
     29 O         139.6940  144.5995  159.4358 O.3     1  UNL1       -0.4044
     30 F         142.0125  144.7854  161.3307 F       1  UNL1       -0.1328
     31 C         140.8532  144.6925  160.3832 C.3     1  UNL1        0.5753
     32 F         141.6532  143.7880  159.4932 F       1  UNL1       -0.1328
     33 F         140.0534  145.5969  161.2733 F       1  UNL1       -0.1328
@<TRIPOS>BOND
     1    30    31    1
     2    31    32    1
     3    31    33    1
     4    31    29    1
     5    29    23    1
     6    23    24   ar
     7    24    25   ar
     8    25    26   ar
     9    26    27   ar
    10    27    21    1
    11    21     1    1
    12     1     2   ar
    13     2     3   ar
    14     3     4   ar
    15     4     5   ar
    16     5     6    1
    17     6     7    1
    18     7     8    1
    19     8     9    1
    20     9    10   ar
    21    10    11   ar
    22    11    12   ar
    23    12    15    1
    24    15    16   ar
    25    16    17   ar
    26    17    18   ar
    27    18    19   ar
    28    19    20   ar
    29    12    13   ar
    30    13    14   ar
    31    27    28   ar
    32    28    23   ar
    33     5     1   ar
    34    14     9   ar
    35    14     4    1
    36    20    15   ar
    37    21    22    1
@<TRIPOS>MOLECULE
*****
 33 37 0 0 0
SMALL
GASTEIGER

@<TRIPOS>ATOM
      1 C         140.7069  142.8340  161.6064 C.ar    1  UNL1        0.2224
      2 N         141.4171  143.6317  162.6596 N.ar    1  UNL1       -0.1127
      3 N         141.1016  143.0229  163.9937 N.ar    1  UNL1       -0.1273
      4 C         140.1964  141.8488  163.7649 C.ar    1  UNL1        0.1704
      5 N         139.9525  141.7322  162.2895 N.ar    1  UNL1       -0.2796
      6 C         139.1182  140.7239  161.5564 C.3     1  UNL1        0.1574
      7 C         138.3218  139.5833  162.1177 C.3     1  UNL1        0.2299
      8 O         138.1631  139.1694  163.5506 O.3     1  UNL1       -0.4733
      9 C         138.7615  139.7937  164.7763 C.ar    1  UNL1        0.1415
     10 C         138.3468  139.0654  166.0204 C.ar    1  UNL1        0.0370
     11 C         138.8371  139.5296  167.3598 C.ar    1  UNL1        0.0031
     12 C         139.7421  140.7221  167.4551 C.ar    1  UNL1        0.0004
     13 C         140.1567  141.4504  166.2111 C.ar    1  UNL1        0.0061
     14 C         139.6664  140.9862  164.8717 C.ar    1  UNL1        0.0699
     15 C         140.2324  141.1863  168.7946 C.ar    1  UNL1        0.0031
     16 C         140.6960  142.6015  168.9744 C.ar    1  UNL1        0.0207
     17 C         141.1863  143.0657  170.3139 C.ar    1  UNL1        0.0989
     18 N         141.2130  142.1147  171.4736 N.ar    1  UNL1       -0.2423
     19 C         140.7493  140.6994  171.2938 C.ar    1  UNL1        0.0989
     20 C         140.2590  140.2353  169.9543 C.ar    1  UNL1        0.0207
     21 N         140.7445  143.0928  160.1293 N.pl3   1  UNL1       -0.2825
     22 H         140.0457  143.6437  159.7081 H       1  UNL1        0.1551
     23 C         143.3593  140.5011  158.6476 C.ar    1  UNL1        0.1480
     24 C         144.0514  141.3508  157.6234 C.ar    1  UNL1        0.0373
     25 C         143.6411  142.7812  157.4345 C.ar    1  UNL1        0.0044
     26 C         142.5388  143.3618  158.2698 C.ar    1  UNL1        0.0149
     27 C         141.8468  142.5121  159.2940 C.ar    1  UNL1        0.0535
     28 C         142.2571  141.0817  159.4829 C.ar    1  UNL1        0.0518
     29 O         143.7696  139.0706  158.8365 O.3     1  UNL1       -0.4044
     30 F         142.7444  137.5139  161.1872 F       1  UNL1       -0.1328
     31 C         143.2570  138.2923  160.0118 C.3     1  UNL1        0.5753
     32 F         144.3788  138.8244  160.8535 F       1  UNL1       -0.1328
     33 F         142.1352  137.7601  159.1702 F       1  UNL1       -0.1328
@<TRIPOS>BOND
     1    30    31    1
     2    31    32    1
     3    31    33    1
     4    31    29    1
     5    29    23    1
     6    23    24   ar
     7    24    25   ar
     8    25    26   ar
     9    26    27   ar
    10    27    21    1
    11    21     1    1
    12     1     2   ar
    13     2     3   ar
    14     3     4   ar
    15     4     5   ar
    16     5     6    1
    17     6     7    1
    18     7     8    1
    19     8     9    1
    20     9    10   ar
    21    10    11   ar
    22    11    12   ar
    23    12    15    1
    24    15    16   ar
    25    16    17   ar
    26    17    18   ar
    27    18    19   ar
    28    19    20   ar
    29    12    13   ar
    30    13    14   ar
    31    27    28   ar
    32    28    23   ar
    33     5     1   ar
    34    14     9   ar
    35    14     4    1
    36    20    15   ar
    37    21    22    1
