@<TRIPOS>MOLECULE
*****
 31 34 0 0 0
SMALL
GASTEIGER

@<TRIPOS>ATOM
      1 C         140.8195  139.1900  163.6487 C.2     1  UNL1        0.0596
      2 C         141.5446  139.5999  162.4011 C.2     1  UNL1        0.0324
      3 C         141.0194  139.1863  161.0583 C.2     1  UNL1        0.0889
      4 N         141.5156  139.4387  159.6654 N.2     1  UNL1       -0.2236
      5 C         140.5719  138.7714  158.7093 C.2     1  UNL1        0.1859
      6 N         139.4926  138.1065  159.5113 N.2     1  UNL1       -0.2387
      7 C         139.7692  138.3630  160.9631 C.3     1  UNL1        0.1679
      8 C         139.0442  137.9532  162.2106 C.2     1  UNL1        0.0164
      9 C         139.5694  138.3667  163.5534 C.2     1  UNL1        0.0690
     10 CL        138.8443  137.9569  164.8010 Cl      1  UNL1       -0.0812
     11 N         142.3951  140.4307  167.6772 N.3     1  UNL1       -0.2698
     12 C         141.4384  141.3200  166.9397 C.3     1  UNL1        0.0938
     13 C         140.9132  140.9064  165.5969 C.3     1  UNL1        0.1081
     14 N         141.3447  139.6036  164.9916 N.pl3   1  UNL1       -0.3040
     15 C         142.3014  138.7143  165.7291 C.3     1  UNL1        0.1081
     16 C         142.8266  139.1278  167.0719 C.3     1  UNL1        0.0938
     17 C         143.3571  142.2605  169.2508 C.3     1  UNL1        0.0188
     18 C         142.9203  140.8442  169.0200 C.3     1  UNL1        0.0722
     19 S         140.6873  138.7692  157.2137 S.3     1  UNL1       -0.0777
     20 C         140.8818  137.4764  156.4784 C.3     1  UNL1        0.0462
     21 C         139.4763  137.8009  156.0672 C.3     1  UNL1        0.0113
     22 C         142.2199  137.6008  157.1450 C.3     1  UNL1        0.0121
     23 C         143.2643  136.5452  156.9334 C.3     1  UNL1        0.0204
     24 C         142.9707  135.3650  156.0552 C.3     1  UNL1        0.0716
     25 C         141.6327  135.2406  155.3887 C.3     1  UNL1        0.0204
     26 C         140.5883  136.2963  155.6002 C.3     1  UNL1        0.0121
     27 N         144.0151  134.3094  155.8436 N.am    1  UNL1       -0.3060
     28 C         143.8498  132.9552  156.4672 C.2     1  UNL1        0.2229
     29 C         144.8942  131.8995  156.2557 C.3     1  UNL1        0.0946
     30 O         142.6401  132.6567  157.3024 O.2     1  UNL1       -0.2751
     31 H         144.8091  134.5053  155.2955 H       1  UNL1        0.1494
@<TRIPOS>BOND
     1    17    18    1
     2    18    11    1
     3    11    12    1
     4    12    13    1
     5    13    14    1
     6    14     1    1
     7     1     2    2
     8     2     3    1
     9     3     4    2
    10     4     5    1
    11     5    19    1
    12    19    20    1
    13    20    21    1
    14    20    22    1
    15    22    23    1
    16    23    24    1
    17    24    27    1
    18    27    28   am
    19    28    29    1
    20    28    30    2
    21    24    25    1
    22    25    26    1
    23     5     6    2
    24     6     7    1
    25     7     8    1
    26     8     9    2
    27     9    10    1
    28    14    15    1
    29    15    16    1
    30    16    11    1
    31     9     1    1
    32     7     3    1
    33    26    20    1
    34    27    31    1
@<TRIPOS>MOLECULE
*****
 31 34 0 0 0
SMALL
GASTEIGER

@<TRIPOS>ATOM
      1 C         142.3191  143.4474  158.6588 C.2     1  UNL1        0.0596
      2 C         141.8206  142.4479  159.6601 C.2     1  UNL1        0.0324
      3 C         140.7184  142.8207  160.6068 C.2     1  UNL1        0.0889
      4 N         140.0260  142.0525  161.6933 N.2     1  UNL1       -0.2236
      5 C         138.9944  142.9499  162.3102 C.2     1  UNL1        0.1859
      6 N         139.0492  144.2727  161.6049 N.2     1  UNL1       -0.2387
      7 C         140.1147  144.1928  160.5521 C.3     1  UNL1        0.1679
      8 C         140.6133  145.1921  159.5508 C.2     1  UNL1        0.0164
      9 C         141.7155  144.8194  158.6041 C.2     1  UNL1        0.0690
     10 CL        142.2140  145.8189  157.6028 Cl      1  UNL1       -0.0812
     11 N         145.6258  142.3292  155.8187 N.3     1  UNL1       -0.2698
     12 C         145.8762  142.3317  157.2976 C.3     1  UNL1        0.0938
     13 C         144.7740  142.7044  158.2443 C.3     1  UNL1        0.1081
     14 N         143.4214  143.0746  157.7120 N.pl3   1  UNL1       -0.3040
     15 C         143.1709  143.0721  156.2331 C.3     1  UNL1        0.1081
     16 C         144.2731  142.6994  155.2864 C.3     1  UNL1        0.0938
     17 C         148.1085  141.6915  155.3952 C.3     1  UNL1        0.0188
     18 C         146.7279  141.9565  154.8719 C.3     1  UNL1        0.0722
     19 S         138.0702  142.5881  163.4349 S.3     1  UNL1       -0.0777
     20 C         138.5714  141.7597  164.5805 C.3     1  UNL1        0.0462
     21 C         137.7596  140.7309  163.8507 C.3     1  UNL1        0.0113
     22 C         139.2091  143.0762  164.9125 C.3     1  UNL1        0.0121
     23 C         140.0661  143.2070  166.1366 C.3     1  UNL1        0.0204
     24 C         140.2853  142.0212  167.0288 C.3     1  UNL1        0.0716
     25 C         139.6476  140.7048  166.6968 C.3     1  UNL1        0.0204
     26 C         138.7906  140.5740  165.4727 C.3     1  UNL1        0.0121
     27 N         141.1423  142.1521  168.2530 N.am    1  UNL1       -0.3060
     28 C         142.6368  142.1556  168.1253 C.2     1  UNL1        0.2229
     29 C         143.4939  142.2864  169.3493 C.3     1  UNL1        0.0946
     30 O         143.2744  142.0283  166.7734 O.2     1  UNL1       -0.2751
     31 H         140.7238  142.2356  169.1402 H       1  UNL1        0.1494
@<TRIPOS>BOND
     1    17    18    1
     2    18    11    1
     3    11    12    1
     4    12    13    1
     5    13    14    1
     6    14     1    1
     7     1     2    2
     8     2     3    1
     9     3     4    2
    10     4     5    1
    11     5    19    1
    12    19    20    1
    13    20    21    1
    14    20    22    1
    15    22    23    1
    16    23    24    1
    17    24    27    1
    18    27    28   am
    19    28    29    1
    20    28    30    2
    21    24    25    1
    22    25    26    1
    23     5     6    2
    24     6     7    1
    25     7     8    1
    26     8     9    2
    27     9    10    1
    28    14    15    1
    29    15    16    1
    30    16    11    1
    31     9     1    1
    32     7     3    1
    33    26    20    1
    34    27    31    1
@<TRIPOS>MOLECULE
*****
 31 34 0 0 0
SMALL
GASTEIGER

@<TRIPOS>ATOM
      1 C         143.4643  140.6620  158.8895 C.2     1  UNL1        0.0596
      2 C         143.7523  139.6409  159.9500 C.2     1  UNL1        0.0324
      3 C         142.7060  139.3043  160.9708 C.2     1  UNL1        0.0889
      4 N         142.7020  138.3474  162.1259 N.2     1  UNL1       -0.2236
      5 C         141.3652  138.4404  162.8001 C.2     1  UNL1        0.1859
      6 N         140.5432  139.4548  162.0617 N.2     1  UNL1       -0.2387
      7 C         141.3719  139.9887  160.9312 C.3     1  UNL1        0.1679
      8 C         141.0839  141.0097  159.8707 C.2     1  UNL1        0.0164
      9 C         142.1302  141.3463  158.8499 C.2     1  UNL1        0.0690
     10 CL        141.8422  142.3674  157.7894 Cl      1  UNL1       -0.0812
     11 N         146.6030  141.6717  155.8270 N.3     1  UNL1       -0.2698
     12 C         145.7039  140.4894  155.6177 C.3     1  UNL1        0.0938
     13 C         144.6577  140.1529  156.6385 C.3     1  UNL1        0.1081
     14 N         144.5106  140.9986  157.8687 N.pl3   1  UNL1       -0.3040
     15 C         145.4097  142.1808  158.0779 C.3     1  UNL1        0.1081
     16 C         146.4559  142.5174  157.0571 C.3     1  UNL1        0.0938
     17 C         149.0999  141.7884  155.1184 C.3     1  UNL1        0.0188
     18 C         147.6493  142.0084  154.8063 C.3     1  UNL1        0.0722
     19 S         140.9274  137.6565  164.0018 S.3     1  UNL1       -0.0777
     20 C         140.0892  138.3111  165.0596 C.3     1  UNL1        0.0462
     21 C         139.0262  137.5637  164.3104 C.3     1  UNL1        0.0113
     22 C         141.4434  138.8313  165.4413 C.3     1  UNL1        0.0121
     23 C         141.5902  139.7464  166.6207 C.3     1  UNL1        0.0204
     24 C         140.3828  140.1414  167.4184 C.3     1  UNL1        0.0716
     25 C         139.0287  139.6213  167.0366 C.3     1  UNL1        0.0204
     26 C         138.8819  138.7061  165.8572 C.3     1  UNL1        0.0121
     27 N         140.5296  141.0566  168.5978 N.am    1  UNL1       -0.3060
     28 C         140.4859  142.5433  168.4034 C.2     1  UNL1        0.2229
     29 C         140.6327  143.4585  169.5828 C.3     1  UNL1        0.0946
     30 O         140.2953  143.1148  167.0297 O.2     1  UNL1       -0.2751
     31 H         140.6547  140.6814  169.4994 H       1  UNL1        0.1494
@<TRIPOS>BOND
     1    17    18    1
     2    18    11    1
     3    11    12    1
     4    12    13    1
     5    13    14    1
     6    14     1    1
     7     1     2    2
     8     2     3    1
     9     3     4    2
    10     4     5    1
    11     5    19    1
    12    19    20    1
    13    20    21    1
    14    20    22    1
    15    22    23    1
    16    23    24    1
    17    24    27    1
    18    27    28   am
    19    28    29    1
    20    28    30    2
    21    24    25    1
    22    25    26    1
    23     5     6    2
    24     6     7    1
    25     7     8    1
    26     8     9    2
    27     9    10    1
    28    14    15    1
    29    15    16    1
    30    16    11    1
    31     9     1    1
    32     7     3    1
    33    26    20    1
    34    27    31    1
@<TRIPOS>MOLECULE
*****
 31 34 0 0 0
SMALL
GASTEIGER

@<TRIPOS>ATOM
      1 C         139.4465  142.0303  164.0387 C.2     1  UNL1        0.0596
      2 C         139.8482  141.2223  162.8404 C.2     1  UNL1        0.0324
      3 C         139.3523  141.6049  161.4775 C.2     1  UNL1        0.0889
      4 N         139.5779  141.0035  160.1220 N.2     1  UNL1       -0.2236
      5 C         138.8198  141.8223  159.1196 C.2     1  UNL1        0.1859
      6 N         138.1257  142.9299  159.8555 N.2     1  UNL1       -0.2387
      7 C         138.4548  142.7955  161.3128 C.3     1  UNL1        0.1679
      8 C         138.0532  143.6035  162.5111 C.2     1  UNL1        0.0164
      9 C         138.5491  143.2208  163.8741 C.2     1  UNL1        0.0690
     10 CL        138.1475  144.0288  165.0724 Cl      1  UNL1       -0.0812
     11 N         140.9342  140.8824  168.1277 N.3     1  UNL1       -0.2698
     12 C         139.7493  140.1784  167.5358 C.3     1  UNL1        0.0938
     13 C         139.2534  140.5610  166.1728 C.3     1  UNL1        0.1081
     14 N         139.9424  141.6477  165.4018 N.pl3   1  UNL1       -0.3040
     15 C         141.1273  142.3517  165.9937 C.3     1  UNL1        0.1081
     16 C         141.6231  141.9691  167.3567 C.3     1  UNL1        0.0938
     17 C         142.2641  139.2655  169.6662 C.3     1  UNL1        0.0188
     18 C         141.4301  140.4999  169.4907 C.3     1  UNL1        0.0722
     19 S         138.7653  141.5768  157.6408 S.3     1  UNL1       -0.0777
     20 C         138.1036  142.5757  156.7385 C.3     1  UNL1        0.0462
     21 C         136.9704  141.6131  156.9368 C.3     1  UNL1        0.0113
     22 C         139.4666  143.1915  156.8537 C.3     1  UNL1        0.0121
     23 C         139.7743  144.4718  156.1353 C.3     1  UNL1        0.0204
     24 C         138.7189  145.1365  155.3019 C.3     1  UNL1        0.0716
     25 C         137.3560  144.5207  155.1868 C.3     1  UNL1        0.0204
     26 C         137.0483  143.2404  155.9051 C.3     1  UNL1        0.0121
     27 N         139.0267  146.4169  154.5835 N.am    1  UNL1       -0.3060
     28 C         139.1198  147.7030  155.3498 C.2     1  UNL1        0.2229
     29 C         139.4276  148.9834  154.6316 C.3     1  UNL1        0.0946
     30 O         138.9053  147.7087  156.8344 O.2     1  UNL1       -0.2751
     31 H         139.1675  146.4131  153.6092 H       1  UNL1        0.1494
@<TRIPOS>BOND
     1    17    18    1
     2    18    11    1
     3    11    12    1
     4    12    13    1
     5    13    14    1
     6    14     1    1
     7     1     2    2
     8     2     3    1
     9     3     4    2
    10     4     5    1
    11     5    19    1
    12    19    20    1
    13    20    21    1
    14    20    22    1
    15    22    23    1
    16    23    24    1
    17    24    27    1
    18    27    28   am
    19    28    29    1
    20    28    30    2
    21    24    25    1
    22    25    26    1
    23     5     6    2
    24     6     7    1
    25     7     8    1
    26     8     9    2
    27     9    10    1
    28    14    15    1
    29    15    16    1
    30    16    11    1
    31     9     1    1
    32     7     3    1
    33    26    20    1
    34    27    31    1
@<TRIPOS>MOLECULE
*****
 31 34 0 0 0
SMALL
GASTEIGER

@<TRIPOS>ATOM
      1 C         142.7873  137.7947  157.6204 C.2     1  UNL1        0.0596
      2 C         142.8810  137.2656  159.0209 C.2     1  UNL1        0.0324
      3 C         143.2932  138.1752  160.1402 C.2     1  UNL1        0.0889
      4 N         143.4726  137.9396  161.6106 N.2     1  UNL1       -0.2236
      5 C         143.9019  139.2326  162.2382 C.2     1  UNL1        0.1859
      6 N         143.9880  140.2673  161.1556 N.2     1  UNL1       -0.2387
      7 C         143.6118  139.6138  159.8589 C.3     1  UNL1        0.1679
      8 C         143.5181  140.1428  158.4584 C.2     1  UNL1        0.0164
      9 C         143.1059  139.2332  157.3392 C.2     1  UNL1        0.0690
     10 CL        143.0122  139.7623  155.9387 Cl      1  UNL1       -0.0812
     11 N         141.5507  135.0660  154.2625 N.3     1  UNL1       -0.2698
     12 C         142.9881  135.1294  154.6867 C.3     1  UNL1        0.0938
     13 C         143.4003  136.0390  155.8060 C.3     1  UNL1        0.1081
     14 N         142.3751  136.8851  156.5011 N.pl3   1  UNL1       -0.3040
     15 C         140.9378  136.8217  156.0769 C.3     1  UNL1        0.1081
     16 C         140.5256  135.9121  154.9576 C.3     1  UNL1        0.0938
     17 C         141.8779  132.8725  152.9091 C.3     1  UNL1        0.0188
     18 C         141.1385  134.1564  153.1433 C.3     1  UNL1        0.0722
     19 S         144.1940  139.4523  163.6930 S.3     1  UNL1       -0.0777
     20 C         143.9347  140.7919  164.3161 C.3     1  UNL1        0.0462
     21 C         145.4173  140.8841  164.1081 C.3     1  UNL1        0.0113
     22 C         142.5421  140.2345  164.3076 C.3     1  UNL1        0.0121
     23 C         141.4050  141.0487  164.8501 C.3     1  UNL1        0.0204
     24 C         141.6606  142.4204  165.4009 C.3     1  UNL1        0.0716
     25 C         143.0531  142.9777  165.4093 C.3     1  UNL1        0.0204
     26 C         144.1902  142.1635  164.8669 C.3     1  UNL1        0.0121
     27 N         140.5235  143.2346  165.9433 N.am    1  UNL1       -0.3060
     28 C         139.6846  144.0625  165.0157 C.2     1  UNL1        0.2229
     29 C         138.5475  144.8768  165.5580 C.3     1  UNL1        0.0946
     30 O         139.9826  144.0763  163.5456 O.2     1  UNL1       -0.2751
     31 H         140.3279  143.2255  166.9081 H       1  UNL1        0.1494
@<TRIPOS>BOND
     1    17    18    1
     2    18    11    1
     3    11    12    1
     4    12    13    1
     5    13    14    1
     6    14     1    1
     7     1     2    2
     8     2     3    1
     9     3     4    2
    10     4     5    1
    11     5    19    1
    12    19    20    1
    13    20    21    1
    14    20    22    1
    15    22    23    1
    16    23    24    1
    17    24    27    1
    18    27    28   am
    19    28    29    1
    20    28    30    2
    21    24    25    1
    22    25    26    1
    23     5     6    2
    24     6     7    1
    25     7     8    1
    26     8     9    2
    27     9    10    1
    28    14    15    1
    29    15    16    1
    30    16    11    1
    31     9     1    1
    32     7     3    1
    33    26    20    1
    34    27    31    1
@<TRIPOS>MOLECULE
*****
 31 34 0 0 0
SMALL
GASTEIGER

@<TRIPOS>ATOM
      1 C         140.4121  140.2041  160.4205 C.2     1  UNL1        0.0596
      2 C         141.7646  139.7238  159.9843 C.2     1  UNL1        0.0324
      3 C         141.8946  138.8472  158.7741 C.2     1  UNL1        0.0889
      4 N         143.0864  138.2245  158.1092 N.2     1  UNL1       -0.2236
      5 C         142.6006  137.4434  156.9244 C.2     1  UNL1        0.1859
      6 N         141.1087  137.5833  156.8569 N.2     1  UNL1       -0.2387
      7 C         140.6723  138.4509  158.0002 C.3     1  UNL1        0.1679
      8 C         139.3200  138.9313  158.4364 C.2     1  UNL1        0.0164
      9 C         139.1899  139.8079  159.6466 C.2     1  UNL1        0.0690
     10 CL        137.8374  140.2883  160.0828 Cl      1  UNL1       -0.0812
     11 N         140.0218  142.8341  164.0512 N.3     1  UNL1       -0.2698
     12 C         140.1263  143.4493  162.6872 C.3     1  UNL1        0.0938
     13 C         140.2564  142.5727  161.4770 C.3     1  UNL1        0.1081
     14 N         140.2820  141.0808  161.6308 N.pl3   1  UNL1       -0.3040
     15 C         140.1776  140.4656  162.9948 C.3     1  UNL1        0.1081
     16 C         140.0475  141.3422  164.2050 C.3     1  UNL1        0.0938
     17 C         138.8490  144.7883  165.2983 C.3     1  UNL1        0.0188
     18 C         139.8918  143.7106  165.2614 C.3     1  UNL1        0.0722
     19 S         143.4565  136.6600  155.9738 S.3     1  UNL1       -0.0777
     20 C         143.0716  135.2598  155.5977 C.3     1  UNL1        0.0462
     21 C         142.6861  135.9824  154.3410 C.3     1  UNL1        0.0113
     22 C         143.5907  135.0235  156.9851 C.3     1  UNL1        0.0121
     23 C         143.5910  133.6380  157.5599 C.3     1  UNL1        0.0204
     24 C         143.0722  132.4888  156.7473 C.3     1  UNL1        0.0716
     25 C         142.5532  132.7251  155.3600 C.3     1  UNL1        0.0204
     26 C         142.5528  134.1106  154.7852 C.3     1  UNL1        0.0121
     27 N         143.0726  131.1033  157.3222 N.am    1  UNL1       -0.3060
     28 C         144.0974  130.1048  156.8720 C.2     1  UNL1        0.2229
     29 C         144.0978  128.7193  157.4468 C.3     1  UNL1        0.0946
     30 O         145.1219  130.4918  155.8469 O.2     1  UNL1       -0.2751
     31 H         142.4002  130.8493  157.9950 H       1  UNL1        0.1494
@<TRIPOS>BOND
     1    17    18    1
     2    18    11    1
     3    11    12    1
     4    12    13    1
     5    13    14    1
     6    14     1    1
     7     1     2    2
     8     2     3    1
     9     3     4    2
    10     4     5    1
    11     5    19    1
    12    19    20    1
    13    20    21    1
    14    20    22    1
    15    22    23    1
    16    23    24    1
    17    24    27    1
    18    27    28   am
    19    28    29    1
    20    28    30    2
    21    24    25    1
    22    25    26    1
    23     5     6    2
    24     6     7    1
    25     7     8    1
    26     8     9    2
    27     9    10    1
    28    14    15    1
    29    15    16    1
    30    16    11    1
    31     9     1    1
    32     7     3    1
    33    26    20    1
    34    27    31    1
@<TRIPOS>MOLECULE
*****
 31 34 0 0 0
SMALL
GASTEIGER

@<TRIPOS>ATOM
      1 C         142.8828  138.1385  158.0897 C.2     1  UNL1        0.0596
      2 C         143.0215  137.5662  159.4693 C.2     1  UNL1        0.0324
      3 C         143.4619  138.4428  160.6040 C.2     1  UNL1        0.0889
      4 N         143.6867  138.1622  162.0603 N.2     1  UNL1       -0.2236
      5 C         144.1273  139.4376  162.7154 C.2     1  UNL1        0.1859
      6 N         144.1748  140.5064  161.6641 N.2     1  UNL1       -0.2387
      7 C         143.7636  139.8916  160.3591 C.3     1  UNL1        0.1679
      8 C         143.6249  140.4638  158.9795 C.2     1  UNL1        0.0164
      9 C         143.1845  139.5872  157.8448 C.2     1  UNL1        0.0690
     10 CL        143.0457  140.1595  156.4652 Cl      1  UNL1       -0.0812
     11 N         141.5616  135.5087  154.6854 N.3     1  UNL1       -0.2698
     12 C         143.0157  135.5993  155.0425 C.3     1  UNL1        0.0938
     13 C         143.4560  136.4759  156.1772 C.3     1  UNL1        0.1081
     14 N         142.4424  137.2618  156.9549 N.pl3   1  UNL1       -0.3040
     15 C         140.9883  137.1712  156.5978 C.3     1  UNL1        0.1081
     16 C         140.5479  136.2946  155.4631 C.3     1  UNL1        0.0938
     17 C         141.5776  134.9287  152.1529 C.3     1  UNL1        0.0188
     18 C         141.1211  134.6321  153.5507 C.3     1  UNL1        0.0722
     19 S         144.4616  139.6133  164.1671 S.3     1  UNL1       -0.0777
     20 C         143.6912  140.5938  165.0008 C.3     1  UNL1        0.0462
     21 C         144.7938  141.4823  164.5062 C.3     1  UNL1        0.0113
     22 C         142.8561  139.3647  165.2059 C.3     1  UNL1        0.0121
     23 C         141.6336  139.4246  166.0730 C.3     1  UNL1        0.0204
     24 C         141.2461  140.7137  166.7350 C.3     1  UNL1        0.0716
     25 C         142.0811  141.9427  166.5298 C.3     1  UNL1        0.0204
     26 C         143.3037  141.8828  165.6628 C.3     1  UNL1        0.0121
     27 N         140.0235  140.7737  167.6020 N.am    1  UNL1       -0.3060
     28 C         140.0830  140.2804  169.0173 C.2     1  UNL1        0.2229
     29 C         138.8605  140.3402  169.8845 C.3     1  UNL1        0.0946
     30 O         141.3649  139.7271  169.5656 O.2     1  UNL1       -0.2751
     31 H         139.1822  141.1368  167.2422 H       1  UNL1        0.1494
@<TRIPOS>BOND
     1    17    18    1
     2    18    11    1
     3    11    12    1
     4    12    13    1
     5    13    14    1
     6    14     1    1
     7     1     2    2
     8     2     3    1
     9     3     4    2
    10     4     5    1
    11     5    19    1
    12    19    20    1
    13    20    21    1
    14    20    22    1
    15    22    23    1
    16    23    24    1
    17    24    27    1
    18    27    28   am
    19    28    29    1
    20    28    30    2
    21    24    25    1
    22    25    26    1
    23     5     6    2
    24     6     7    1
    25     7     8    1
    26     8     9    2
    27     9    10    1
    28    14    15    1
    29    15    16    1
    30    16    11    1
    31     9     1    1
    32     7     3    1
    33    26    20    1
    34    27    31    1
@<TRIPOS>MOLECULE
*****
 31 34 0 0 0
SMALL
GASTEIGER

@<TRIPOS>ATOM
      1 C         140.1833  143.0338  163.9983 C.2     1  UNL1        0.0596
      2 C         140.7620  142.5100  162.7173 C.2     1  UNL1        0.0324
      3 C         140.5967  143.2888  161.4460 C.2     1  UNL1        0.0889
      4 N         141.0535  143.0262  160.0416 N.2     1  UNL1       -0.2236
      5 C         140.5919  144.1665  159.1833 C.2     1  UNL1        0.1859
      6 N         139.8498  145.1338  160.0572 N.2     1  UNL1       -0.2387
      7 C         139.8528  144.5913  161.4557 C.3     1  UNL1        0.1679
      8 C         139.2742  145.1150  162.7367 C.2     1  UNL1        0.0164
      9 C         139.4395  144.3363  164.0079 C.2     1  UNL1        0.0690
     10 CL        138.8609  144.8601  165.2889 Cl      1  UNL1       -0.0812
     11 N         140.6793  140.6976  167.8123 N.3     1  UNL1       -0.2698
     12 C         141.6901  141.7393  167.4340 C.3     1  UNL1        0.0938
     13 C         141.5248  142.5180  166.1627 C.3     1  UNL1        0.1081
     14 N         140.3487  142.2550  165.2697 N.pl3   1  UNL1       -0.3040
     15 C         139.3378  141.2134  165.6479 C.3     1  UNL1        0.1081
     16 C         139.5031  140.4346  166.9192 C.3     1  UNL1        0.0938
     17 C         142.2168  139.5504  169.5644 C.3     1  UNL1        0.0188
     18 C         140.8445  139.9188  169.0835 C.3     1  UNL1        0.0722
     19 S         140.8305  144.3138  157.7097 S.3     1  UNL1       -0.0777
     20 C         139.6776  144.5704  156.7852 C.3     1  UNL1        0.0462
     21 C         140.4991  145.7979  156.5239 C.3     1  UNL1        0.0113
     22 C         139.2564  143.2537  157.3676 C.3     1  UNL1        0.0121
     23 C         137.9676  142.6200  156.9347 C.3     1  UNL1        0.0204
     24 C         137.0999  143.3030  155.9194 C.3     1  UNL1        0.0716
     25 C         137.5211  144.6196  155.3371 C.3     1  UNL1        0.0204
     26 C         138.8099  145.2533  155.7700 C.3     1  UNL1        0.0121
     27 N         135.8111  142.6692  155.4865 N.am    1  UNL1       -0.3060
     28 C         135.7975  141.7088  154.3345 C.2     1  UNL1        0.2229
     29 C         134.5087  141.0750  153.9015 C.3     1  UNL1        0.0946
     30 O         137.0727  141.3820  153.6153 O.2     1  UNL1       -0.2751
     31 H         134.9742  142.8837  155.9586 H       1  UNL1        0.1494
@<TRIPOS>BOND
     1    17    18    1
     2    18    11    1
     3    11    12    1
     4    12    13    1
     5    13    14    1
     6    14     1    1
     7     1     2    2
     8     2     3    1
     9     3     4    2
    10     4     5    1
    11     5    19    1
    12    19    20    1
    13    20    21    1
    14    20    22    1
    15    22    23    1
    16    23    24    1
    17    24    27    1
    18    27    28   am
    19    28    29    1
    20    28    30    2
    21    24    25    1
    22    25    26    1
    23     5     6    2
    24     6     7    1
    25     7     8    1
    26     8     9    2
    27     9    10    1
    28    14    15    1
    29    15    16    1
    30    16    11    1
    31     9     1    1
    32     7     3    1
    33    26    20    1
    34    27    31    1
@<TRIPOS>MOLECULE
*****
 31 34 0 0 0
SMALL
GASTEIGER

@<TRIPOS>ATOM
      1 C         142.4843  140.4181  163.5259 C.2     1  UNL1        0.0596
      2 C         141.5295  140.2962  162.3754 C.2     1  UNL1        0.0324
      3 C         142.0474  139.9994  160.9993 C.2     1  UNL1        0.0889
      4 N         141.3525  139.8235  159.6817 N.2     1  UNL1       -0.2236
      5 C         142.3956  139.5399  158.6418 C.2     1  UNL1        0.1859
      6 N         143.7352  139.5406  159.3167 N.2     1  UNL1       -0.2387
      7 C         143.5200  139.8246  160.7737 C.3     1  UNL1        0.1679
      8 C         144.4747  139.9465  161.9243 C.2     1  UNL1        0.0164
      9 C         143.9568  140.2433  163.3004 C.2     1  UNL1        0.0690
     10 CL        144.9115  140.3653  164.4509 Cl      1  UNL1       -0.0812
     11 N         140.9305  141.3086  167.6543 N.3     1  UNL1       -0.2698
     12 C         141.1781  142.4291  166.6883 C.3     1  UNL1        0.0938
     13 C         141.6960  142.1323  165.3122 C.3     1  UNL1        0.1081
     14 N         141.9663  140.7149  164.9021 N.pl3   1  UNL1       -0.3040
     15 C         141.7187  139.5944  165.8681 C.3     1  UNL1        0.1081
     16 C         141.2008  139.8912  167.2442 C.3     1  UNL1        0.0938
     17 C         139.5350  140.6114  169.7319 C.3     1  UNL1        0.0188
     18 C         140.4126  141.6053  169.0304 C.3     1  UNL1        0.0722
     19 S         142.1435  139.2982  157.1830 S.3     1  UNL1       -0.0777
     20 C         143.0588  138.4025  156.4020 C.3     1  UNL1        0.0462
     21 C         143.4314  139.7316  155.8148 C.3     1  UNL1        0.0113
     22 C         142.3684  137.3845  157.2605 C.3     1  UNL1        0.0121
     23 C         142.7226  135.9324  157.1340 C.3     1  UNL1        0.0204
     24 C         143.7674  135.4984  156.1490 C.3     1  UNL1        0.0716
     25 C         144.4578  136.5164  155.2906 C.3     1  UNL1        0.0204
     26 C         144.1036  137.9685  155.4171 C.3     1  UNL1        0.0121
     27 N         144.1217  134.0463  156.0226 N.am    1  UNL1       -0.3060
     28 C         143.3137  133.1523  155.1293 C.2     1  UNL1        0.2229
     29 C         143.6679  131.7002  155.0028 C.3     1  UNL1        0.0946
     30 O         142.1515  133.7104  154.3625 O.2     1  UNL1       -0.2751
     31 H         144.8845  133.6801  156.5258 H       1  UNL1        0.1494
@<TRIPOS>BOND
     1    17    18    1
     2    18    11    1
     3    11    12    1
     4    12    13    1
     5    13    14    1
     6    14     1    1
     7     1     2    2
     8     2     3    1
     9     3     4    2
    10     4     5    1
    11     5    19    1
    12    19    20    1
    13    20    21    1
    14    20    22    1
    15    22    23    1
    16    23    24    1
    17    24    27    1
    18    27    28   am
    19    28    29    1
    20    28    30    2
    21    24    25    1
    22    25    26    1
    23     5     6    2
    24     6     7    1
    25     7     8    1
    26     8     9    2
    27     9    10    1
    28    14    15    1
    29    15    16    1
    30    16    11    1
    31     9     1    1
    32     7     3    1
    33    26    20    1
    34    27    31    1
