@<TRIPOS>MOLECULE
*****
 33 36 0 0 0
SMALL
GASTEIGER

@<TRIPOS>ATOM
      1 C         141.2540  140.5862  168.3532 C.ar    1  UNL1        0.0685
      2 C         140.9496  140.4828  169.8183 C.ar    1  UNL1        0.0885
      3 C         139.6037  140.0010  170.2725 C.ar    1  UNL1        0.1263
      4 N         138.5621  139.6226  169.2616 N.ar    1  UNL1       -0.1633
      5 N         138.8665  139.7260  167.7964 N.ar    1  UNL1       -0.2270
      6 C         138.0458  139.4261  166.5772 C.ar    1  UNL1        0.1004
      7 C         138.8845  139.7226  165.3695 C.ar    1  UNL1        0.0208
      8 C         140.2236  140.2057  165.8423 C.ar    1  UNL1        0.0219
      9 C         140.2125  140.2078  167.3422 C.ar    1  UNL1        0.0961
     10 C         138.4589  139.5638  163.9399 C.ar    1  UNL1        0.0046
     11 C         138.5885  138.2319  163.2623 C.ar    1  UNL1        0.0207
     12 C         138.1629  138.0732  161.8327 C.ar    1  UNL1        0.0989
     13 N         137.6077  139.2464  161.0807 N.ar    1  UNL1       -0.2423
     14 C         137.4781  140.5783  161.7584 C.ar    1  UNL1        0.0989
     15 C         137.9038  140.7370  163.1880 C.ar    1  UNL1        0.0207
     16 C         141.9912  140.8613  170.8292 C.2     1  UNL1        0.2456
     17 N         143.1837  139.9771  171.0443 N.am    1  UNL1       -0.3252
     18 O         141.8404  142.1238  171.6249 O.2     1  UNL1       -0.2703
     19 H         143.2826  139.1484  170.5220 H       1  UNL1        0.1453
     20 H         143.8673  140.2254  171.7078 H       1  UNL1        0.1453
     21 N         142.5999  141.0681  167.8990 N.pl3   1  UNL1       -0.3327
     22 H         143.0650  141.7753  168.4017 H       1  UNL1        0.1468
     23 C         143.3169  142.4370  166.2742 C.3     1  UNL1        0.0029
     24 C         143.7707  141.2340  165.5016 C.3     1  UNL1        0.0282
     25 C         144.2092  142.2471  164.4861 C.3     1  UNL1        0.0029
     26 C         143.2373  140.4724  166.6786 C.3     1  UNL1        0.0702
     27 C         143.4530  139.0105  166.4212 C.3     1  UNL1        0.0208
     28 C         144.1198  138.8686  165.0851 C.3     1  UNL1        0.0160
     29 C         144.3161  140.2428  164.5168 C.3     1  UNL1        0.0404
     30 C         144.6406  141.4632  163.7071 C.3     1  UNL1        0.0156
     31 N         144.9293  139.5067  163.3626 N.3     1  UNL1       -0.3231
     32 H         144.9005  138.5036  163.5451 H       1  UNL1        0.1188
     33 H         145.8983  139.8034  163.2463 H       1  UNL1        0.1188
@<TRIPOS>BOND
     1    23    24    1
     2    24    25    1
     3    24    26    1
     4    26    21    1
     5    21     1    1
     6     1     2   ar
     7     2    16    1
     8    16    17   am
     9    16    18    2
    10     2     3   ar
    11     3     4   ar
    12     4     5   ar
    13     5     6   ar
    14     6     7   ar
    15     7    10    1
    16    10    11   ar
    17    11    12   ar
    18    12    13   ar
    19    13    14   ar
    20    14    15   ar
    21     7     8   ar
    22     8     9   ar
    23    26    27    1
    24    27    28    1
    25    28    29    1
    26    29    30    1
    27    29    31    1
    28    29    24    1
    29     9     1   ar
    30     9     5   ar
    31    15    10   ar
    32    21    22    1
    33    17    19    1
    34    17    20    1
    35    31    32    1
    36    31    33    1
@<TRIPOS>MOLECULE
*****
 33 36 0 0 0
SMALL
GASTEIGER

@<TRIPOS>ATOM
      1 C         141.1644  140.5507  167.5292 C.ar    1  UNL1        0.0685
      2 C         141.4000  140.1098  168.9435 C.ar    1  UNL1        0.0885
      3 C         142.4784  139.1130  169.2485 C.ar    1  UNL1        0.1263
      4 N         143.3215  138.5570  168.1393 N.ar    1  UNL1       -0.1633
      5 N         143.0859  138.9979  166.7251 N.ar    1  UNL1       -0.2270
      6 C         143.7528  138.6267  165.4338 C.ar    1  UNL1        0.1004
      7 C         143.0864  139.3941  164.3307 C.ar    1  UNL1        0.0208
      8 C         142.0077  140.2397  164.9402 C.ar    1  UNL1        0.0219
      9 C         142.0074  139.9948  166.4200 C.ar    1  UNL1        0.0961
     10 C         143.4371  139.3277  162.8737 C.ar    1  UNL1        0.0046
     11 C         143.3436  138.0237  162.1385 C.ar    1  UNL1        0.0207
     12 C         143.6943  137.9574  160.6815 C.ar    1  UNL1        0.0989
     13 N         144.1385  139.1950  159.9599 N.ar    1  UNL1       -0.2423
     14 C         144.2320  140.4991  160.6951 C.ar    1  UNL1        0.0989
     15 C         143.8813  140.5654  162.1521 C.ar    1  UNL1        0.0207
     16 C         140.5569  140.6658  170.0527 C.2     1  UNL1        0.2456
     17 N         140.0009  139.7506  171.1030 N.am    1  UNL1       -0.3252
     18 O         140.2699  142.1368  170.1115 O.2     1  UNL1       -0.2703
     19 H         140.1893  138.7850  171.0644 H       1  UNL1        0.1453
     20 H         139.4476  140.1154  171.8310 H       1  UNL1        0.1453
     21 N         140.0859  141.5475  167.2242 N.pl3   1  UNL1       -0.3327
     22 H         139.9748  142.3425  167.7942 H       1  UNL1        0.1468
     23 C         139.6169  143.2848  165.8864 C.3     1  UNL1        0.0029
     24 C         138.7579  142.3764  165.0574 C.3     1  UNL1        0.0282
     25 C         138.5188  143.6096  164.2377 C.3     1  UNL1        0.0029
     26 C         139.1766  141.3332  166.0505 C.3     1  UNL1        0.0702
     27 C         138.5264  140.0379  165.6640 C.3     1  UNL1        0.0208
     28 C         137.7058  140.2806  164.4321 C.3     1  UNL1        0.0160
     29 C         137.8490  141.7259  164.0572 C.3     1  UNL1        0.0404
     30 C         137.7999  143.0951  163.4465 C.3     1  UNL1        0.0156
     31 N         136.9297  141.3617  162.9292 N.3     1  UNL1       -0.3231
     32 H         136.6910  140.3719  162.9912 H       1  UNL1        0.1188
     33 H         137.3941  141.5444  162.0396 H       1  UNL1        0.1188
@<TRIPOS>BOND
     1    23    24    1
     2    24    25    1
     3    24    26    1
     4    26    21    1
     5    21     1    1
     6     1     2   ar
     7     2    16    1
     8    16    17   am
     9    16    18    2
    10     2     3   ar
    11     3     4   ar
    12     4     5   ar
    13     5     6   ar
    14     6     7   ar
    15     7    10    1
    16    10    11   ar
    17    11    12   ar
    18    12    13   ar
    19    13    14   ar
    20    14    15   ar
    21     7     8   ar
    22     8     9   ar
    23    26    27    1
    24    27    28    1
    25    28    29    1
    26    29    30    1
    27    29    31    1
    28    29    24    1
    29     9     1   ar
    30     9     5   ar
    31    15    10   ar
    32    21    22    1
    33    17    19    1
    34    17    20    1
    35    31    32    1
    36    31    33    1
@<TRIPOS>MOLECULE
*****
 33 36 0 0 0
SMALL
GASTEIGER

@<TRIPOS>ATOM
      1 C         142.2504  140.9229  167.0386 C.ar    1  UNL1        0.0685
      2 C         142.0701  140.9172  168.5277 C.ar    1  UNL1        0.0885
      3 C         141.1493  141.9082  169.1755 C.ar    1  UNL1        0.1263
      4 N         140.4087  142.9052  168.3343 N.ar    1  UNL1       -0.1633
      5 N         140.5890  142.9110  166.8452 N.ar    1  UNL1       -0.2270
      6 C         139.9968  143.7679  165.7658 C.ar    1  UNL1        0.1004
      7 C         140.5517  143.3063  164.4509 C.ar    1  UNL1        0.0208
      8 C         141.4868  142.1642  164.7175 C.ar    1  UNL1        0.0219
      9 C         141.5099  141.9199  166.1973 C.ar    1  UNL1        0.0961
     10 C         140.2283  143.8853  163.1054 C.ar    1  UNL1        0.0046
     11 C         139.9032  142.9771  161.9567 C.ar    1  UNL1        0.0207
     12 C         139.5797  143.5562  160.6112 C.ar    1  UNL1        0.0989
     13 N         139.5814  145.0432  160.4145 N.ar    1  UNL1       -0.2423
     14 C         139.9065  145.9513  161.5632 C.ar    1  UNL1        0.0989
     15 C         140.2299  145.3723  162.9087 C.ar    1  UNL1        0.0207
     16 C         142.8106  139.9202  169.3689 C.2     1  UNL1        0.2456
     17 N         143.3154  140.3119  170.7260 N.am    1  UNL1       -0.3252
     18 O         143.0464  138.5316  168.8531 O.2     1  UNL1       -0.2703
     19 H         143.1607  141.2233  171.0646 H       1  UNL1        0.1453
     20 H         143.8015  139.6576  171.2782 H       1  UNL1        0.1453
     21 N         143.1712  139.9318  166.3908 N.pl3   1  UNL1       -0.3327
     22 H         144.0936  139.8291  166.7192 H       1  UNL1        0.1468
     23 C         144.3619  139.9084  164.4909 C.3     1  UNL1        0.0029
     24 C         143.3539  138.9643  163.9056 C.3     1  UNL1        0.0282
     25 C         144.2319  139.0289  162.6912 C.3     1  UNL1        0.0029
     26 C         142.6867  139.0970  165.2425 C.3     1  UNL1        0.0702
     27 C         141.4498  138.2485  165.2295 C.3     1  UNL1        0.0208
     28 C         141.3526  137.5914  163.8847 C.3     1  UNL1        0.0160
     29 C         142.5294  138.0338  163.0665 C.3     1  UNL1        0.0404
     30 C         143.5797  138.2929  162.0274 C.3     1  UNL1        0.0156
     31 N         141.9245  137.1574  162.0101 N.3     1  UNL1       -0.3231
     32 H         141.0695  136.7326  162.3692 H       1  UNL1        0.1188
     33 H         142.5871  136.4249  161.7555 H       1  UNL1        0.1188
@<TRIPOS>BOND
     1    23    24    1
     2    24    25    1
     3    24    26    1
     4    26    21    1
     5    21     1    1
     6     1     2   ar
     7     2    16    1
     8    16    17   am
     9    16    18    2
    10     2     3   ar
    11     3     4   ar
    12     4     5   ar
    13     5     6   ar
    14     6     7   ar
    15     7    10    1
    16    10    11   ar
    17    11    12   ar
    18    12    13   ar
    19    13    14   ar
    20    14    15   ar
    21     7     8   ar
    22     8     9   ar
    23    26    27    1
    24    27    28    1
    25    28    29    1
    26    29    30    1
    27    29    31    1
    28    29    24    1
    29     9     1   ar
    30     9     5   ar
    31    15    10   ar
    32    21    22    1
    33    17    19    1
    34    17    20    1
    35    31    32    1
    36    31    33    1
@<TRIPOS>MOLECULE
*****
 33 36 0 0 0
SMALL
GASTEIGER

@<TRIPOS>ATOM
      1 C         140.9962  139.2965  163.8348 C.ar    1  UNL1        0.0685
      2 C         140.2320  138.3776  162.9285 C.ar    1  UNL1        0.0885
      3 C         138.9881  137.7006  163.4225 C.ar    1  UNL1        0.1263
      4 N         138.5083  137.9424  164.8231 N.ar    1  UNL1       -0.1633
      5 N         139.2725  138.8613  165.7294 N.ar    1  UNL1       -0.2270
      6 C         139.0443  139.2895  167.1488 C.ar    1  UNL1        0.1004
      7 C         140.1472  140.2311  167.5319 C.ar    1  UNL1        0.0208
      8 C         141.0571  140.3850  166.3493 C.ar    1  UNL1        0.0219
      9 C         140.5165  139.5384  165.2353 C.ar    1  UNL1        0.0961
     10 C         140.3115  140.9013  168.8637 C.ar    1  UNL1        0.0046
     11 C         140.5602  140.0775  170.0923 C.ar    1  UNL1        0.0207
     12 C         140.7245  140.7478  171.4241 C.ar    1  UNL1        0.0989
     13 N         140.6400  142.2418  171.5274 N.ar    1  UNL1       -0.2423
     14 C         140.3913  143.0657  170.2989 C.ar    1  UNL1        0.0989
     15 C         140.2270  142.3954  168.9670 C.ar    1  UNL1        0.0207
     16 C         140.7118  138.1358  161.5279 C.2     1  UNL1        0.2456
     17 N         139.7854  138.3573  160.3691 N.am    1  UNL1       -0.3252
     18 O         142.1177  137.6725  161.2863 O.2     1  UNL1       -0.2703
     19 H         138.8626  138.6614  160.5277 H       1  UNL1        0.1453
     20 H         140.1003  138.1986  159.4499 H       1  UNL1        0.1453
     21 N         142.2402  139.9736  163.3407 N.pl3   1  UNL1       -0.3327
     22 H         143.0969  139.4886  163.3387 H       1  UNL1        0.1468
     23 C         143.9119  141.3739  163.8622 C.3     1  UNL1        0.0029
     24 C         143.2032  142.4558  163.1022 C.3     1  UNL1        0.0282
     25 C         144.3758  143.2956  163.5138 C.3     1  UNL1        0.0029
     26 C         142.1787  141.3897  162.8495 C.3     1  UNL1        0.0702
     27 C         141.0820  141.9881  162.0194 C.3     1  UNL1        0.0208
     28 C         141.4287  143.4241  161.7592 C.3     1  UNL1        0.0160
     29 C         142.7397  143.7131  162.4284 C.3     1  UNL1        0.0404
     30 C         144.0092  144.2901  162.9808 C.3     1  UNL1        0.0156
     31 N         142.5415  145.0911  161.8700 N.3     1  UNL1       -0.3231
     32 H         141.6649  145.1243  161.3496 H       1  UNL1        0.1188
     33 H         143.3158  145.3199  161.2466 H       1  UNL1        0.1188
@<TRIPOS>BOND
     1    23    24    1
     2    24    25    1
     3    24    26    1
     4    26    21    1
     5    21     1    1
     6     1     2   ar
     7     2    16    1
     8    16    17   am
     9    16    18    2
    10     2     3   ar
    11     3     4   ar
    12     4     5   ar
    13     5     6   ar
    14     6     7   ar
    15     7    10    1
    16    10    11   ar
    17    11    12   ar
    18    12    13   ar
    19    13    14   ar
    20    14    15   ar
    21     7     8   ar
    22     8     9   ar
    23    26    27    1
    24    27    28    1
    25    28    29    1
    26    29    30    1
    27    29    31    1
    28    29    24    1
    29     9     1   ar
    30     9     5   ar
    31    15    10   ar
    32    21    22    1
    33    17    19    1
    34    17    20    1
    35    31    32    1
    36    31    33    1
@<TRIPOS>MOLECULE
*****
 33 36 0 0 0
SMALL
GASTEIGER

@<TRIPOS>ATOM
      1 C         138.9228  140.3227  163.3356 C.ar    1  UNL1        0.0685
      2 C         138.9178  139.0575  162.5298 C.ar    1  UNL1        0.0885
      3 C         139.3507  137.7663  163.1582 C.ar    1  UNL1        0.1263
      4 N         139.7888  137.7401  164.5927 N.ar    1  UNL1       -0.1633
      5 N         139.7939  139.0052  165.3985 N.ar    1  UNL1       -0.2270
      6 C         140.1710  139.2865  166.8228 C.ar    1  UNL1        0.1004
      7 C         139.9711  140.7516  167.0745 C.ar    1  UNL1        0.0208
      8 C         139.4704  141.3759  165.8058 C.ar    1  UNL1        0.0219
      9 C         139.3609  140.2965  164.7699 C.ar    1  UNL1        0.0961
     10 C         140.2269  141.4669  168.3679 C.ar    1  UNL1        0.0046
     11 C         140.3600  142.9609  168.3851 C.ar    1  UNL1        0.0207
     12 C         140.6158  143.6762  169.6786 C.ar    1  UNL1        0.0989
     13 N         140.7386  142.8976  170.9547 N.ar    1  UNL1       -0.2423
     14 C         140.6056  141.4036  170.9375 C.ar    1  UNL1        0.0989
     15 C         140.3497  140.6883  169.6441 C.ar    1  UNL1        0.0207
     16 C         138.4797  139.0838  161.0953 C.2     1  UNL1        0.2456
     17 N         139.3603  138.4986  160.0314 N.am    1  UNL1       -0.3252
     18 O         137.1610  139.6951  160.7249 O.2     1  UNL1       -0.2703
     19 H         140.2258  138.0973  160.2746 H       1  UNL1        0.1453
     20 H         139.0729  138.5157  159.0900 H       1  UNL1        0.1453
     21 N         138.4898  141.6140  162.7070 N.pl3   1  UNL1       -0.3327
     22 H         137.5350  141.8524  162.6799 H       1  UNL1        0.1468
     23 C         138.1989  143.8260  162.9308 C.3     1  UNL1        0.0029
     24 C         139.4766  144.0406  162.1748 C.3     1  UNL1        0.0282
     25 C         139.1744  145.4943  162.3880 C.3     1  UNL1        0.0029
     26 C         139.5116  142.5420  162.1198 C.3     1  UNL1        0.0702
     27 C         140.7478  142.1343  161.3744 C.3     1  UNL1        0.0208
     28 C         141.4767  143.3809  160.9688 C.3     1  UNL1        0.0160
     29 C         140.6911  144.5590  161.4635 C.3     1  UNL1        0.0404
     30 C         140.1350  145.9044  161.8253 C.3     1  UNL1        0.0156
     31 N         141.7894  145.3588  160.8278 N.3     1  UNL1       -0.3231
     32 H         142.4708  144.7267  160.4076 H       1  UNL1        0.1188
     33 H         142.2481  145.9304  161.5371 H       1  UNL1        0.1188
@<TRIPOS>BOND
     1    23    24    1
     2    24    25    1
     3    24    26    1
     4    26    21    1
     5    21     1    1
     6     1     2   ar
     7     2    16    1
     8    16    17   am
     9    16    18    2
    10     2     3   ar
    11     3     4   ar
    12     4     5   ar
    13     5     6   ar
    14     6     7   ar
    15     7    10    1
    16    10    11   ar
    17    11    12   ar
    18    12    13   ar
    19    13    14   ar
    20    14    15   ar
    21     7     8   ar
    22     8     9   ar
    23    26    27    1
    24    27    28    1
    25    28    29    1
    26    29    30    1
    27    29    31    1
    28    29    24    1
    29     9     1   ar
    30     9     5   ar
    31    15    10   ar
    32    21    22    1
    33    17    19    1
    34    17    20    1
    35    31    32    1
    36    31    33    1
@<TRIPOS>MOLECULE
*****
 33 36 0 0 0
SMALL
GASTEIGER

@<TRIPOS>ATOM
      1 C         139.1654  141.4149  162.6613 C.ar    1  UNL1        0.0685
      2 C         138.4974  140.7113  161.5173 C.ar    1  UNL1        0.0885
      3 C         138.0026  139.3056  161.6875 C.ar    1  UNL1        0.1263
      4 N         138.1758  138.6033  163.0016 N.ar    1  UNL1       -0.1633
      5 N         138.8438  139.3070  164.1456 N.ar    1  UNL1       -0.2270
      6 C         139.1528  138.8733  165.5479 C.ar    1  UNL1        0.1004
      7 C         139.8386  140.0111  166.2444 C.ar    1  UNL1        0.0208
      8 C         139.9535  141.1479  165.2725 C.ar    1  UNL1        0.0219
      9 C         139.3386  140.7127  163.9754 C.ar    1  UNL1        0.0961
     10 C         140.3243  140.0119  167.6636 C.ar    1  UNL1        0.0046
     11 C         141.7808  139.8077  167.9579 C.ar    1  UNL1        0.0207
     12 C         142.2665  139.8086  169.3772 C.ar    1  UNL1        0.0989
     13 N         141.2956  140.0137  170.5020 N.ar    1  UNL1       -0.2423
     14 C         139.8390  140.2179  170.2077 C.ar    1  UNL1        0.0989
     15 C         139.3534  140.2171  168.7884 C.ar    1  UNL1        0.0207
     16 C         138.3242  141.4135  160.2031 C.2     1  UNL1        0.2456
     17 N         138.3795  140.6335  158.9231 N.am    1  UNL1       -0.3252
     18 O         138.0958  142.8955  160.1691 O.2     1  UNL1       -0.2703
     19 H         138.5294  139.6607  158.9455 H       1  UNL1        0.1453
     20 H         138.2658  141.0943  158.0605 H       1  UNL1        0.1453
     21 N         139.6603  142.8206  162.4911 N.pl3   1  UNL1       -0.3327
     22 H         139.0250  143.5724  162.5147 H       1  UNL1        0.1468
     23 C         140.6533  144.4315  163.6938 C.3     1  UNL1        0.0029
     24 C         141.9441  144.1135  162.9990 C.3     1  UNL1        0.0282
     25 C         142.4952  145.2124  163.8584 C.3     1  UNL1        0.0029
     26 C         141.1231  143.0811  162.2848 C.3     1  UNL1        0.0702
     27 C         142.0217  142.3547  161.3283 C.3     1  UNL1        0.0208
     28 C         143.3980  142.9383  161.4512 C.3     1  UNL1        0.0160
     29 C         143.3500  144.0252  162.4838 C.3     1  UNL1        0.0404
     30 C         143.6073  145.1426  163.4509 C.3     1  UNL1        0.0156
     31 N         144.8098  144.1706  162.1707 N.3     1  UNL1       -0.3231
     32 H         145.0732  143.4930  161.4552 H       1  UNL1        0.1188
     33 H         145.3569  144.0034  163.0152 H       1  UNL1        0.1188
@<TRIPOS>BOND
     1    23    24    1
     2    24    25    1
     3    24    26    1
     4    26    21    1
     5    21     1    1
     6     1     2   ar
     7     2    16    1
     8    16    17   am
     9    16    18    2
    10     2     3   ar
    11     3     4   ar
    12     4     5   ar
    13     5     6   ar
    14     6     7   ar
    15     7    10    1
    16    10    11   ar
    17    11    12   ar
    18    12    13   ar
    19    13    14   ar
    20    14    15   ar
    21     7     8   ar
    22     8     9   ar
    23    26    27    1
    24    27    28    1
    25    28    29    1
    26    29    30    1
    27    29    31    1
    28    29    24    1
    29     9     1   ar
    30     9     5   ar
    31    15    10   ar
    32    21    22    1
    33    17    19    1
    34    17    20    1
    35    31    32    1
    36    31    33    1
@<TRIPOS>MOLECULE
*****
 33 36 0 0 0
SMALL
GASTEIGER

@<TRIPOS>ATOM
      1 C         143.1636  141.3051  163.9475 C.ar    1  UNL1        0.0685
      2 C         143.9780  140.2967  163.1924 C.ar    1  UNL1        0.0885
      3 C         144.4604  139.0548  163.8813 C.ar    1  UNL1        0.1263
      4 N         144.1285  138.8210  165.3254 N.ar    1  UNL1       -0.1633
      5 N         143.3141  139.8293  166.0805 N.ar    1  UNL1       -0.2270
      6 C         142.8338  139.8708  167.5009 C.ar    1  UNL1        0.1004
      7 C         142.0546  141.1385  167.6898 C.ar    1  UNL1        0.0208
      8 C         142.0532  141.8804  166.3861 C.ar    1  UNL1        0.0219
      9 C         142.8317  141.0713  165.3915 C.ar    1  UNL1        0.0961
     10 C         141.3928  141.5857  168.9594 C.ar    1  UNL1        0.0046
     11 C         140.6909  142.9103  169.0131 C.ar    1  UNL1        0.0207
     12 C         140.0291  143.3574  170.2829 C.ar    1  UNL1        0.0989
     13 N         140.0692  142.4800  171.4988 N.ar    1  UNL1       -0.2423
     14 C         140.7710  141.1555  171.4451 C.ar    1  UNL1        0.0989
     15 C         141.4328  140.7083  170.1754 C.ar    1  UNL1        0.0207
     16 C         144.3099  140.5305  161.7484 C.2     1  UNL1        0.2456
     17 N         144.3119  139.3817  160.7839 N.am    1  UNL1       -0.3252
     18 O         144.6396  141.9130  161.2689 O.2     1  UNL1       -0.2703
     19 H         144.0955  138.4744  161.0986 H       1  UNL1        0.1453
     20 H         144.5298  139.5351  159.8361 H       1  UNL1        0.1453
     21 N         142.6812  142.5471  163.2585 N.pl3   1  UNL1       -0.3327
     22 H         143.2909  143.3103  163.1357 H       1  UNL1        0.1468
     23 C         141.4576  144.3607  163.7497 C.3     1  UNL1        0.0029
     24 C         140.3136  143.7584  162.9892 C.3     1  UNL1        0.0282
     25 C         139.5967  145.0164  163.3807 C.3     1  UNL1        0.0029
     26 C         141.2698  142.6263  162.7567 C.3     1  UNL1        0.0702
     27 C         140.5668  141.5873  161.9343 C.3     1  UNL1        0.0208
     28 C         139.1762  142.0773  161.6586 C.3     1  UNL1        0.0160
     29 C         139.0198  143.4191  162.3105 C.3     1  UNL1        0.0404
     30 C         138.5733  144.7481  162.8438 C.3     1  UNL1        0.0156
     31 N         137.6325  143.3576  161.7433 N.3     1  UNL1       -0.3231
     32 H         137.5124  142.4828  161.2327 H       1  UNL1        0.1188
     33 H         137.4892  144.1437  161.1093 H       1  UNL1        0.1188
@<TRIPOS>BOND
     1    23    24    1
     2    24    25    1
     3    24    26    1
     4    26    21    1
     5    21     1    1
     6     1     2   ar
     7     2    16    1
     8    16    17   am
     9    16    18    2
    10     2     3   ar
    11     3     4   ar
    12     4     5   ar
    13     5     6   ar
    14     6     7   ar
    15     7    10    1
    16    10    11   ar
    17    11    12   ar
    18    12    13   ar
    19    13    14   ar
    20    14    15   ar
    21     7     8   ar
    22     8     9   ar
    23    26    27    1
    24    27    28    1
    25    28    29    1
    26    29    30    1
    27    29    31    1
    28    29    24    1
    29     9     1   ar
    30     9     5   ar
    31    15    10   ar
    32    21    22    1
    33    17    19    1
    34    17    20    1
    35    31    32    1
    36    31    33    1
@<TRIPOS>MOLECULE
*****
 33 36 0 0 0
SMALL
GASTEIGER

@<TRIPOS>ATOM
      1 C         140.3790  140.2883  166.2503 C.ar    1  UNL1        0.0685
      2 C         139.4907  139.9799  167.4190 C.ar    1  UNL1        0.0885
      3 C         138.3695  138.9948  167.2694 C.ar    1  UNL1        0.1263
      4 N         138.1365  138.3182  165.9510 N.ar    1  UNL1       -0.1633
      5 N         139.0248  138.6267  164.7824 N.ar    1  UNL1       -0.2270
      6 C         139.0381  138.1201  163.3706 C.ar    1  UNL1        0.1004
      7 C         140.1676  138.7921  162.6477 C.ar    1  UNL1        0.0208
      8 C         140.8524  139.7140  163.6127 C.ar    1  UNL1        0.0219
      9 C         140.1460  139.6117  164.9320 C.ar    1  UNL1        0.0961
     10 C         140.5460  138.5796  161.2118 C.ar    1  UNL1        0.0046
     11 C         139.4940  138.6295  160.1437 C.ar    1  UNL1        0.0207
     12 C         139.8725  138.4169  158.7079 C.ar    1  UNL1        0.0989
     13 N         141.3028  138.1545  158.3401 N.ar    1  UNL1       -0.2423
     14 C         142.3548  138.1046  159.4082 C.ar    1  UNL1        0.0989
     15 C         141.9763  138.3172  160.8441 C.ar    1  UNL1        0.0207
     16 C         139.7237  140.6565  168.7373 C.2     1  UNL1        0.2456
     17 N         139.5562  139.8881  170.0146 N.am    1  UNL1       -0.3252
     18 O         140.1242  142.1014  168.7783 O.2     1  UNL1       -0.2703
     19 H         139.2934  138.9397  169.9877 H       1  UNL1        0.1453
     20 H         139.7091  140.3322  170.8799 H       1  UNL1        0.1453
     21 N         141.5003  141.2734  166.4000 N.pl3   1  UNL1       -0.3327
     22 H         142.2142  141.1104  167.0580 H       1  UNL1        0.1468
     23 C         143.4811  142.0385  165.6800 C.3     1  UNL1        0.0029
     24 C         142.7627  143.1546  164.9813 C.3     1  UNL1        0.0282
     25 C         144.1419  143.5688  164.5615 C.3     1  UNL1        0.0029
     26 C         141.5337  142.5070  165.5471 C.3     1  UNL1        0.0702
     27 C         140.3440  143.3095  165.1104 C.3     1  UNL1        0.0208
     28 C         140.8378  144.4530  164.2747 C.3     1  UNL1        0.0160
     29 C         142.3326  144.3573  164.1949 C.3     1  UNL1        0.0404
     30 C         143.8017  144.5201  163.9395 C.3     1  UNL1        0.0156
     31 N         142.2096  145.5940  163.3551 N.3     1  UNL1       -0.3231
     32 H         141.2264  145.8527  163.2727 H       1  UNL1        0.1188
     33 H         142.5927  145.4143  162.4270 H       1  UNL1        0.1188
@<TRIPOS>BOND
     1    23    24    1
     2    24    25    1
     3    24    26    1
     4    26    21    1
     5    21     1    1
     6     1     2   ar
     7     2    16    1
     8    16    17   am
     9    16    18    2
    10     2     3   ar
    11     3     4   ar
    12     4     5   ar
    13     5     6   ar
    14     6     7   ar
    15     7    10    1
    16    10    11   ar
    17    11    12   ar
    18    12    13   ar
    19    13    14   ar
    20    14    15   ar
    21     7     8   ar
    22     8     9   ar
    23    26    27    1
    24    27    28    1
    25    28    29    1
    26    29    30    1
    27    29    31    1
    28    29    24    1
    29     9     1   ar
    30     9     5   ar
    31    15    10   ar
    32    21    22    1
    33    17    19    1
    34    17    20    1
    35    31    32    1
    36    31    33    1
@<TRIPOS>MOLECULE
*****
 33 36 0 0 0
SMALL
GASTEIGER

@<TRIPOS>ATOM
      1 C         142.9401  140.4668  163.8323 C.ar    1  UNL1        0.0685
      2 C         144.0268  140.8548  162.8739 C.ar    1  UNL1        0.0885
      3 C         145.0434  141.8842  163.2696 C.ar    1  UNL1        0.1263
      4 N         144.9734  142.5257  164.6238 N.ar    1  UNL1       -0.1633
      5 N         143.8867  142.1377  165.5822 N.ar    1  UNL1       -0.2270
      6 C         143.5658  142.5950  166.9742 C.ar    1  UNL1        0.1004
      7 C         142.3507  141.8482  167.4388 C.ar    1  UNL1        0.0208
      8 C         141.9207  140.9293  166.3339 C.ar    1  UNL1        0.0219
      9 C         142.8700  141.1082  165.1864 C.ar    1  UNL1        0.0961
     10 C         141.6829  141.9945  168.7740 C.ar    1  UNL1        0.0046
     11 C         142.0530  141.0778  169.9022 C.ar    1  UNL1        0.0207
     12 C         141.3850  141.2242  171.2373 C.ar    1  UNL1        0.0989
     13 N         140.3471  142.2872  171.4442 N.ar    1  UNL1       -0.2423
     14 C         139.9770  143.2038  170.3160 C.ar    1  UNL1        0.0989
     15 C         140.6449  143.0574  168.9809 C.ar    1  UNL1        0.0207
     16 C         144.0968  140.2133  161.5198 C.2     1  UNL1        0.2456
     17 N         144.5769  138.7988  161.3840 N.am    1  UNL1       -0.3252
     18 O         143.6866  140.9863  160.3016 O.2     1  UNL1       -0.2703
     19 H         144.8461  138.2914  162.1836 H       1  UNL1        0.1453
     20 H         144.6229  138.3777  160.4953 H       1  UNL1        0.1453
     21 N         141.9234  139.4374  163.4366 N.pl3   1  UNL1       -0.3327
     22 H         142.1468  138.4799  163.4876 H       1  UNL1        0.1468
     23 C         140.4752  137.8740  162.7392 C.3     1  UNL1        0.0029
     24 C         139.4790  138.9614  162.4650 C.3     1  UNL1        0.0282
     25 C         138.6000  137.8287  162.0243 C.3     1  UNL1        0.0029
     26 C         140.5663  139.8668  162.9631 C.3     1  UNL1        0.0702
     27 C         140.0584  141.2769  162.9046 C.3     1  UNL1        0.0208
     28 C         138.6571  141.2430  162.3704 C.3     1  UNL1        0.0160
     29 C         138.2991  139.8120  162.0987 C.3     1  UNL1        0.0404
     30 C         137.6668  138.5014  161.7346 C.3     1  UNL1        0.0156
     31 N         136.9870  140.3886  161.6563 N.3     1  UNL1       -0.3231
     32 H         137.0088  141.4030  161.7609 H       1  UNL1        0.1188
     33 H         136.2360  140.0037  162.2292 H       1  UNL1        0.1188
@<TRIPOS>BOND
     1    23    24    1
     2    24    25    1
     3    24    26    1
     4    26    21    1
     5    21     1    1
     6     1     2   ar
     7     2    16    1
     8    16    17   am
     9    16    18    2
    10     2     3   ar
    11     3     4   ar
    12     4     5   ar
    13     5     6   ar
    14     6     7   ar
    15     7    10    1
    16    10    11   ar
    17    11    12   ar
    18    12    13   ar
    19    13    14   ar
    20    14    15   ar
    21     7     8   ar
    22     8     9   ar
    23    26    27    1
    24    27    28    1
    25    28    29    1
    26    29    30    1
    27    29    31    1
    28    29    24    1
    29     9     1   ar
    30     9     5   ar
    31    15    10   ar
    32    21    22    1
    33    17    19    1
    34    17    20    1
    35    31    32    1
    36    31    33    1
