@<TRIPOS>MOLECULE
*****
 34 36 0 0 0
SMALL
GASTEIGER

@<TRIPOS>ATOM
      1 C         140.5849  139.0434  160.7130 C.3     1  UNL1        0.1017
      2 C         139.4979  138.7132  159.7335 C.3     1  UNL1        0.0394
      3 C         139.8475  138.3336  158.3250 C.3     1  UNL1        0.0740
      4 N         141.2840  138.2842  157.8961 N.3     1  UNL1       -0.2701
      5 C         142.3710  138.6144  158.8756 C.3     1  UNL1        0.1037
      6 C         142.0215  138.9940  160.2840 C.3     1  UNL1        0.1490
      7 C         140.2729  138.3895  163.2080 C.2     1  UNL1        0.2488
      8 O         140.6599  136.9765  162.8862 O.2     1  UNL1       -0.2700
      9 N         140.2354  139.4230  162.1214 N.am    1  UNL1       -0.2999
     10 H         139.9814  140.3504  162.3327 H       1  UNL1        0.1498
     11 C         140.7923  139.7306  165.3718 C.ar    1  UNL1        0.1443
     12 C         140.4428  140.1102  166.7802 C.ar    1  UNL1        0.0520
     13 C         139.2242  139.5283  167.4333 C.ar    1  UNL1        0.0553
     14 N         138.8747  139.9080  168.8418 N.pl3   1  UNL1       -0.3563
     15 C         138.3553  138.5669  166.6781 C.ar    1  UNL1        0.0709
     16 CL        137.1367  137.9851  167.3312 Cl      1  UNL1       -0.0810
     17 C         138.7048  138.1873  165.2697 C.ar    1  UNL1        0.0202
     18 C         139.9234  138.7692  164.6165 C.ar    1  UNL1        0.0882
     19 H         139.4451  140.5390  169.3375 H       1  UNL1        0.1424
     20 H         138.0749  139.5261  169.2705 H       1  UNL1        0.1424
     21 C         142.3942  141.7386  164.9816 C.3     1  UNL1        0.2525
     22 O         142.0109  140.3124  164.7186 O.3     1  UNL1       -0.4712
     23 O         143.1085  139.3241  161.2636 O.3     1  UNL1       -0.3505
     24 C         143.8738  138.2221  161.9342 C.3     1  UNL1        0.1741
     25 C         141.6335  137.9046  156.4877 C.3     1  UNL1        0.0818
     26 C         142.5480  136.7442  156.2286 C.3     1  UNL1        0.1026
     27 C         141.9780  135.4132  155.8364 C.2     1  UNL1        0.2272
     28 O         140.7699  135.3465  154.9499 O.2     1  UNL1       -0.2748
     29 N         142.6163  134.1490  156.3307 N.am    1  UNL1       -0.2743
     30 C         143.8246  134.2158  157.2172 C.3     1  UNL1        0.1255
     31 C         144.4629  132.9516  157.7116 C.3     1  UNL1        0.1636
     32 O         143.8929  131.6206  157.3194 O.3     1  UNL1       -0.3501
     33 C         142.6848  131.5539  156.4329 C.3     1  UNL1        0.1636
     34 C         142.0465  132.8181  155.9386 C.3     1  UNL1        0.1255
@<TRIPOS>BOND
     1    21    22    1
     2    22    11    1
     3    11    12   ar
     4    12    13   ar
     5    13    14    1
     6    13    15   ar
     7    15    16    1
     8    15    17   ar
     9    17    18   ar
    10    18     7    1
    11     7     8    2
    12     7     9   am
    13     1     9    1
    14     1     2    1
    15     2     3    1
    16     3     4    1
    17     4    25    1
    18    25    26    1
    19    26    27    1
    20    27    28    2
    21    27    29   am
    22    29    30    1
    23    30    31    1
    24    31    32    1
    25    32    33    1
    26    33    34    1
    27     4     5    1
    28     5     6    1
    29     6    23    1
    30    23    24    1
    31    18    11   ar
    32     6     1    1
    33    34    29    1
    34    14    19    1
    35    14    20    1
    36     9    10    1
@<TRIPOS>MOLECULE
*****
 34 36 0 0 0
SMALL
GASTEIGER

@<TRIPOS>ATOM
      1 C         142.0793  138.3292  163.6763 C.3     1  UNL1        0.1017
      2 C         143.4724  138.5503  163.1660 C.3     1  UNL1        0.0394
      3 C         143.7568  138.4542  161.6963 C.3     1  UNL1        0.0740
      4 N         142.6482  138.1369  160.7370 N.3     1  UNL1       -0.2701
      5 C         141.2551  137.9158  161.2474 C.3     1  UNL1        0.1037
      6 C         140.9707  138.0119  162.7170 C.3     1  UNL1        0.1490
      7 C         141.5279  139.7618  165.7724 C.2     1  UNL1        0.2488
      8 O         141.5454  141.0022  164.9292 O.2     1  UNL1       -0.2700
      9 N         141.7949  138.4253  165.1460 N.am    1  UNL1       -0.2999
     10 H         141.7834  137.6111  165.6994 H       1  UNL1        0.1498
     11 C         139.8291  139.9836  167.7256 C.ar    1  UNL1        0.1443
     12 C         139.5447  140.0796  169.1952 C.ar    1  UNL1        0.0520
     13 C         140.6747  140.0500  170.1813 C.ar    1  UNL1        0.0553
     14 N         140.3902  140.1460  171.6510 N.pl3   1  UNL1       -0.3563
     15 C         142.0890  139.9243  169.6978 C.ar    1  UNL1        0.0709
     16 CL        143.2189  139.8946  170.6839 Cl      1  UNL1       -0.0810
     17 C         142.3734  139.8282  168.2282 C.ar    1  UNL1        0.0202
     18 C         141.2435  139.8579  167.2421 C.ar    1  UNL1        0.0882
     19 H         139.4619  140.2285  171.9684 H       1  UNL1        0.1424
     20 H         141.1318  140.1266  172.2983 H       1  UNL1        0.1424
     21 C         137.9000  138.7713  166.4771 C.3     1  UNL1        0.2525
     22 O         138.6992  140.0132  166.7395 O.3     1  UNL1       -0.4712
     23 O         139.5776  137.7907  163.2273 O.3     1  UNL1       -0.3505
     24 C         138.4011  138.0570  162.3358 C.3     1  UNL1        0.1741
     25 C         142.9326  138.0408  159.2674 C.3     1  UNL1        0.0818
     26 C         142.9851  139.2847  158.4307 C.3     1  UNL1        0.1026
     27 C         142.0327  140.4115  158.7017 C.2     1  UNL1        0.2272
     28 O         140.6343  140.3579  158.1618 O.2     1  UNL1       -0.2748
     29 N         142.4789  141.5920  159.5125 N.am    1  UNL1       -0.2743
     30 C         143.8774  141.6456  160.0524 C.3     1  UNL1        0.1255
     31 C         144.3236  142.8260  160.8632 C.3     1  UNL1        0.1636
     32 O         143.3713  143.9529  161.1342 O.3     1  UNL1       -0.3501
     33 C         141.9729  143.8993  160.5943 C.3     1  UNL1        0.1636
     34 C         141.5267  142.7188  159.7835 C.3     1  UNL1        0.1255
@<TRIPOS>BOND
     1    21    22    1
     2    22    11    1
     3    11    12   ar
     4    12    13   ar
     5    13    14    1
     6    13    15   ar
     7    15    16    1
     8    15    17   ar
     9    17    18   ar
    10    18     7    1
    11     7     8    2
    12     7     9   am
    13     1     9    1
    14     1     2    1
    15     2     3    1
    16     3     4    1
    17     4    25    1
    18    25    26    1
    19    26    27    1
    20    27    28    2
    21    27    29   am
    22    29    30    1
    23    30    31    1
    24    31    32    1
    25    32    33    1
    26    33    34    1
    27     4     5    1
    28     5     6    1
    29     6    23    1
    30    23    24    1
    31    18    11   ar
    32     6     1    1
    33    34    29    1
    34    14    19    1
    35    14    20    1
    36     9    10    1
@<TRIPOS>MOLECULE
*****
 34 36 0 0 0
SMALL
GASTEIGER

@<TRIPOS>ATOM
      1 C         143.5003  141.5030  163.2794 C.3     1  UNL1        0.1017
      2 C         144.1531  142.7486  162.7577 C.3     1  UNL1        0.0394
      3 C         144.0782  143.0790  161.2964 C.3     1  UNL1        0.0740
      4 N         143.3505  142.1638  160.3569 N.3     1  UNL1       -0.2701
      5 C         142.6977  140.9181  160.8785 C.3     1  UNL1        0.1037
      6 C         142.7726  140.5877  162.3397 C.3     1  UNL1        0.1490
      7 C         142.5225  141.6824  165.6797 C.2     1  UNL1        0.2488
      8 O         141.3950  142.5227  165.1576 O.2     1  UNL1       -0.2700
      9 N         143.5751  141.1725  164.7406 N.am    1  UNL1       -0.2999
     10 H         144.3151  140.6210  165.0832 H       1  UNL1        0.1498
     11 C         142.5460  139.9217  167.5900 C.ar    1  UNL1        0.1443
     12 C         142.6209  139.5912  169.0512 C.ar    1  UNL1        0.0520
     13 C         142.7471  140.6911  170.0634 C.ar    1  UNL1        0.0553
     14 N         142.8220  140.3606  171.5247 N.pl3   1  UNL1       -0.3563
     15 C         142.7985  142.1213  169.6143 C.ar    1  UNL1        0.0709
     16 CL        142.9247  143.2212  170.6265 Cl      1  UNL1       -0.0810
     17 C         142.7236  142.4517  168.1531 C.ar    1  UNL1        0.0202
     18 C         142.5974  141.3519  167.1410 C.ar    1  UNL1        0.0882
     19 H         142.7883  139.4218  171.8194 H       1  UNL1        0.1424
     20 H         142.9049  141.0824  172.1890 H       1  UNL1        0.1424
     21 C         143.6088  137.9711  166.2426 C.3     1  UNL1        0.2525
     22 O         142.4198  138.8218  166.5779 O.3     1  UNL1       -0.4712
     23 O         142.1197  139.3420  162.8614 O.3     1  UNL1       -0.3505
     24 C         140.6572  139.3448  163.1943 C.3     1  UNL1        0.1741
     25 C         143.2757  142.4943  158.8957 C.3     1  UNL1        0.0818
     26 C         142.0927  143.2417  158.3554 C.3     1  UNL1        0.1026
     27 C         141.6798  144.5428  158.9772 C.2     1  UNL1        0.2272
     28 O         142.2950  145.8274  158.5070 O.2     1  UNL1       -0.2748
     29 N         140.6516  144.5592  160.0692 N.am    1  UNL1       -0.2743
     30 C         140.0363  143.2745  160.5394 C.3     1  UNL1        0.1255
     31 C         139.0081  143.2909  161.6315 C.3     1  UNL1        0.1636
     32 O         138.5952  144.5920  162.2533 O.3     1  UNL1       -0.3501
     33 C         139.2104  145.8767  161.7831 C.3     1  UNL1        0.1636
     34 C         140.2386  145.8603  160.6911 C.3     1  UNL1        0.1255
@<TRIPOS>BOND
     1    21    22    1
     2    22    11    1
     3    11    12   ar
     4    12    13   ar
     5    13    14    1
     6    13    15   ar
     7    15    16    1
     8    15    17   ar
     9    17    18   ar
    10    18     7    1
    11     7     8    2
    12     7     9   am
    13     1     9    1
    14     1     2    1
    15     2     3    1
    16     3     4    1
    17     4    25    1
    18    25    26    1
    19    26    27    1
    20    27    28    2
    21    27    29   am
    22    29    30    1
    23    30    31    1
    24    31    32    1
    25    32    33    1
    26    33    34    1
    27     4     5    1
    28     5     6    1
    29     6    23    1
    30    23    24    1
    31    18    11   ar
    32     6     1    1
    33    34    29    1
    34    14    19    1
    35    14    20    1
    36     9    10    1
@<TRIPOS>MOLECULE
*****
 34 36 0 0 0
SMALL
GASTEIGER

@<TRIPOS>ATOM
      1 C         142.0721  138.4775  163.6044 C.3     1  UNL1        0.1017
      2 C         140.9730  138.1574  162.6350 C.3     1  UNL1        0.0394
      3 C         141.2623  138.1044  161.1641 C.3     1  UNL1        0.0740
      4 N         142.6505  138.3714  160.6625 N.3     1  UNL1       -0.2701
      5 C         143.7495  138.6915  161.6319 C.3     1  UNL1        0.1037
      6 C         143.4603  138.7445  163.1028 C.3     1  UNL1        0.1490
      7 C         141.5567  139.8520  165.7480 C.2     1  UNL1        0.2488
      8 O         141.6197  141.1204  164.9498 O.2     1  UNL1       -0.2700
      9 N         141.7829  138.5305  165.0753 N.am    1  UNL1       -0.2999
     10 H         141.7416  137.6980  165.5991 H       1  UNL1        0.1498
     11 C         139.8534  140.0378  167.7010 C.ar    1  UNL1        0.1443
     12 C         139.5643  140.0908  169.1719 C.ar    1  UNL1        0.0520
     13 C         140.6893  140.0109  170.1607 C.ar    1  UNL1        0.0553
     14 N         140.4002  140.0639  171.6317 N.pl3   1  UNL1       -0.3563
     15 C         142.1035  139.8781  169.6787 C.ar    1  UNL1        0.0709
     16 CL        143.2286  139.7982  170.6676 Cl      1  UNL1       -0.0810
     17 C         142.3926  139.8251  168.2078 C.ar    1  UNL1        0.0202
     18 C         141.2676  139.9050  167.2189 C.ar    1  UNL1        0.0882
     19 H         139.4720  140.1511  171.9481 H       1  UNL1        0.1424
     20 H         141.1386  140.0115  172.2807 H       1  UNL1        0.1424
     21 C         137.9983  138.8724  166.3044 C.3     1  UNL1        0.2525
     22 O         138.7283  140.1177  166.7121 O.3     1  UNL1       -0.4712
     23 O         144.5594  139.0645  164.0722 O.3     1  UNL1       -0.3505
     24 C         145.1439  140.4453  164.1141 C.3     1  UNL1        0.1741
     25 C         142.9396  138.3184  159.1917 C.3     1  UNL1        0.0818
     26 C         142.4931  139.4378  158.2987 C.3     1  UNL1        0.1026
     27 C         142.4702  140.8459  158.8154 C.2     1  UNL1        0.2272
     28 O         143.7576  141.5646  159.0912 O.2     1  UNL1       -0.2748
     29 N         141.1599  141.5351  159.0564 N.am    1  UNL1       -0.2743
     30 C         139.8725  140.8163  158.7806 C.3     1  UNL1        0.1255
     31 C         138.5622  141.5055  159.0216 C.3     1  UNL1        0.1636
     32 O         138.5393  142.9136  159.5383 O.3     1  UNL1       -0.3501
     33 C         139.8267  143.6323  159.8141 C.3     1  UNL1        0.1636
     34 C         141.1370  142.9431  159.5731 C.3     1  UNL1        0.1255
@<TRIPOS>BOND
     1    21    22    1
     2    22    11    1
     3    11    12   ar
     4    12    13   ar
     5    13    14    1
     6    13    15   ar
     7    15    16    1
     8    15    17   ar
     9    17    18   ar
    10    18     7    1
    11     7     8    2
    12     7     9   am
    13     1     9    1
    14     1     2    1
    15     2     3    1
    16     3     4    1
    17     4    25    1
    18    25    26    1
    19    26    27    1
    20    27    28    2
    21    27    29   am
    22    29    30    1
    23    30    31    1
    24    31    32    1
    25    32    33    1
    26    33    34    1
    27     4     5    1
    28     5     6    1
    29     6    23    1
    30    23    24    1
    31    18    11   ar
    32     6     1    1
    33    34    29    1
    34    14    19    1
    35    14    20    1
    36     9    10    1
@<TRIPOS>MOLECULE
*****
 34 36 0 0 0
SMALL
GASTEIGER

@<TRIPOS>ATOM
      1 C         141.7995  139.9418  163.2642 C.3     1  UNL1        0.1017
      2 C         143.1889  140.2139  162.7685 C.3     1  UNL1        0.0394
      3 C         143.5484  139.9160  161.3430 C.3     1  UNL1        0.0740
      4 N         142.5185  139.3461  160.4132 N.3     1  UNL1       -0.2701
      5 C         141.1292  139.0741  160.9088 C.3     1  UNL1        0.1037
      6 C         140.7697  139.3719  162.3343 C.3     1  UNL1        0.1490
      7 C         141.7972  139.2652  165.7726 C.2     1  UNL1        0.2488
      8 O         142.5139  137.9928  165.4300 O.2     1  UNL1       -0.2700
      9 N         141.4400  140.2397  164.6896 N.am    1  UNL1       -0.2999
     10 H         140.9696  141.0748  164.9145 H       1  UNL1        0.1498
     11 C         140.0157  139.8690  167.5647 C.ar    1  UNL1        0.1443
     12 C         139.6563  140.1668  168.9902 C.ar    1  UNL1        0.0520
     13 C         140.7187  140.1588  170.0490 C.ar    1  UNL1        0.0553
     14 N         140.3592  140.4567  171.4746 N.pl3   1  UNL1       -0.3563
     15 C         142.1407  139.8529  169.6824 C.ar    1  UNL1        0.0709
     16 CL        143.2031  139.8449  170.7412 Cl      1  UNL1       -0.0810
     17 C         142.5001  139.5550  168.2569 C.ar    1  UNL1        0.0202
     18 C         141.4377  139.5631  167.1981 C.ar    1  UNL1        0.0882
     19 H         139.4259  140.6575  171.7152 H       1  UNL1        0.1424
     20 H         141.0565  140.4514  172.1695 H       1  UNL1        0.1424
     21 C         137.8732  138.8363  166.5193 C.3     1  UNL1        0.2525
     22 O         138.9533  139.8770  166.5059 O.3     1  UNL1       -0.4712
     23 O         139.3803  139.0998  162.8300 O.3     1  UNL1       -0.3505
     24 C         138.9622  137.6971  163.1578 C.3     1  UNL1        0.1741
     25 C         142.8780  139.0483  158.9877 C.3     1  UNL1        0.0818
     26 C         142.6724  137.6692  158.4348 C.3     1  UNL1        0.1026
     27 C         142.2987  137.4870  156.9935 C.2     1  UNL1        0.2272
     28 O         141.6354  138.6040  156.2437 O.2     1  UNL1       -0.2748
     29 N         142.5884  136.1878  156.3020 N.am    1  UNL1       -0.2743
     30 C         143.2518  135.0708  157.0519 C.3     1  UNL1        0.1255
     31 C         143.5416  133.7715  156.3604 C.3     1  UNL1        0.1636
     32 O         143.1679  133.5894  154.9191 O.3     1  UNL1       -0.3501
     33 C         142.5045  134.7064  154.1693 C.3     1  UNL1        0.1636
     34 C         142.2148  136.0056  154.8608 C.3     1  UNL1        0.1255
@<TRIPOS>BOND
     1    21    22    1
     2    22    11    1
     3    11    12   ar
     4    12    13   ar
     5    13    14    1
     6    13    15   ar
     7    15    16    1
     8    15    17   ar
     9    17    18   ar
    10    18     7    1
    11     7     8    2
    12     7     9   am
    13     1     9    1
    14     1     2    1
    15     2     3    1
    16     3     4    1
    17     4    25    1
    18    25    26    1
    19    26    27    1
    20    27    28    2
    21    27    29   am
    22    29    30    1
    23    30    31    1
    24    31    32    1
    25    32    33    1
    26    33    34    1
    27     4     5    1
    28     5     6    1
    29     6    23    1
    30    23    24    1
    31    18    11   ar
    32     6     1    1
    33    34    29    1
    34    14    19    1
    35    14    20    1
    36     9    10    1
@<TRIPOS>MOLECULE
*****
 34 36 0 0 0
SMALL
GASTEIGER

@<TRIPOS>ATOM
      1 C         138.6665  141.2598  163.1642 C.3     1  UNL1        0.1017
      2 C         138.1181  142.4723  162.4721 C.3     1  UNL1        0.0394
      3 C         138.0715  142.5237  160.9736 C.3     1  UNL1        0.0740
      4 N         138.5734  141.3626  160.1674 N.3     1  UNL1       -0.2701
      5 C         139.1219  140.1501  160.8595 C.3     1  UNL1        0.1037
      6 C         139.1684  140.0987  162.3579 C.3     1  UNL1        0.1490
      7 C         139.9607  141.6160  165.3886 C.2     1  UNL1        0.2488
      8 O         141.1618  142.0752  164.6163 O.2     1  UNL1       -0.2700
      9 N         138.7131  141.2083  164.6626 N.am    1  UNL1       -0.2999
     10 H         137.9248  140.9069  165.1695 H       1  UNL1        0.1498
     11 C         139.6188  140.3071  167.6067 C.ar    1  UNL1        0.1443
     12 C         139.6654  140.2557  169.1051 C.ar    1  UNL1        0.0520
     13 C         140.1004  141.4617  169.8838 C.ar    1  UNL1        0.0553
     14 N         140.1469  141.4102  171.3822 N.pl3   1  UNL1       -0.3563
     15 C         140.4888  142.7191  169.1641 C.ar    1  UNL1        0.0709
     16 CL        140.9238  143.9251  169.9428 Cl      1  UNL1       -0.0810
     17 C         140.4423  142.7705  167.6658 C.ar    1  UNL1        0.0202
     18 C         140.0073  141.5645  166.8871 C.ar    1  UNL1        0.0882
     19 H         139.8919  140.5849  171.8546 H       1  UNL1        0.1424
     20 H         140.4324  142.2017  171.8933 H       1  UNL1        0.1424
     21 C         137.7731  138.6043  166.9409 C.3     1  UNL1        0.2525
     22 O         139.1838  139.1011  166.8280 O.3     1  UNL1       -0.4712
     23 O         139.7169  138.8862  163.0500 O.3     1  UNL1       -0.3505
     24 C         138.8809  137.6462  163.1657 C.3     1  UNL1        0.1741
     25 C         138.5268  141.4141  158.6690 C.3     1  UNL1        0.0818
     26 C         139.6716  142.0080  157.9030 C.3     1  UNL1        0.1026
     27 C         141.0769  141.5744  158.1985 C.2     1  UNL1        0.2272
     28 O         141.6601  140.3874  157.4908 O.2     1  UNL1       -0.2748
     29 N         141.8990  142.3280  159.2016 N.am    1  UNL1       -0.2743
     30 C         141.3158  143.5150  159.9094 C.3     1  UNL1        0.1255
     31 C         142.1379  144.2685  160.9125 C.3     1  UNL1        0.1636
     32 O         143.5432  143.8350  161.2080 O.3     1  UNL1       -0.3501
     33 C         144.1264  142.6480  160.5003 C.3     1  UNL1        0.1636
     34 C         143.3043  141.8945  159.4971 C.3     1  UNL1        0.1255
@<TRIPOS>BOND
     1    21    22    1
     2    22    11    1
     3    11    12   ar
     4    12    13   ar
     5    13    14    1
     6    13    15   ar
     7    15    16    1
     8    15    17   ar
     9    17    18   ar
    10    18     7    1
    11     7     8    2
    12     7     9   am
    13     1     9    1
    14     1     2    1
    15     2     3    1
    16     3     4    1
    17     4    25    1
    18    25    26    1
    19    26    27    1
    20    27    28    2
    21    27    29   am
    22    29    30    1
    23    30    31    1
    24    31    32    1
    25    32    33    1
    26    33    34    1
    27     4     5    1
    28     5     6    1
    29     6    23    1
    30    23    24    1
    31    18    11   ar
    32     6     1    1
    33    34    29    1
    34    14    19    1
    35    14    20    1
    36     9    10    1
@<TRIPOS>MOLECULE
*****
 34 36 0 0 0
SMALL
GASTEIGER

@<TRIPOS>ATOM
      1 C         140.4721  140.0895  163.3276 C.3     1  UNL1        0.1017
      2 C         141.2293  138.8621  162.9151 C.3     1  UNL1        0.0394
      3 C         141.0369  138.2881  161.5427 C.3     1  UNL1        0.0740
      4 N         140.0873  138.9414  160.5828 N.3     1  UNL1       -0.2701
      5 C         139.3301  140.1687  160.9953 C.3     1  UNL1        0.1037
      6 C         139.5224  140.7428  162.3677 C.3     1  UNL1        0.1490
      7 C         139.6935  140.3324  165.7944 C.2     1  UNL1        0.2488
      8 O         138.5302  139.4272  165.5164 O.2     1  UNL1       -0.2700
      9 N         140.6645  140.6635  164.7000 N.am    1  UNL1       -0.2999
     10 H         141.4280  141.2577  164.8825 H       1  UNL1        0.1498
     11 C         140.2871  142.3426  167.3295 C.ar    1  UNL1        0.1443
     12 C         140.4795  142.9167  168.7019 C.ar    1  UNL1        0.0520
     13 C         140.2707  142.0546  169.9115 C.ar    1  UNL1        0.0553
     14 N         140.4631  142.6287  171.2839 N.pl3   1  UNL1       -0.3563
     15 C         139.8695  140.6184  169.7488 C.ar    1  UNL1        0.0709
     16 CL        139.6608  139.7563  170.9584 Cl      1  UNL1       -0.0810
     17 C         139.6772  140.0444  168.3764 C.ar    1  UNL1        0.0202
     18 C         139.8859  140.9065  167.1668 C.ar    1  UNL1        0.0882
     19 H         140.7264  143.5713  171.3907 H       1  UNL1        0.1424
     20 H         140.3261  142.0629  172.0778 H       1  UNL1        0.1424
     21 C         139.3608  144.0200  165.5749 C.3     1  UNL1        0.2525
     22 O         140.4959  143.2047  166.1199 O.3     1  UNL1       -0.4712
     23 O         138.7652  141.9702  162.7802 O.3     1  UNL1       -0.3505
     24 C         137.3207  141.8645  163.1701 C.3     1  UNL1        0.1741
     25 C         139.8950  138.3673  159.2105 C.3     1  UNL1        0.0818
     26 C         140.7938  138.7919  158.0871 C.3     1  UNL1        0.1026
     27 C         142.0675  138.0451  157.8226 C.2     1  UNL1        0.2272
     28 O         143.2973  138.3519  158.6246 O.2     1  UNL1       -0.2748
     29 N         142.1114  136.9914  156.7558 N.am    1  UNL1       -0.2743
     30 C         140.8815  136.6846  155.9537 C.3     1  UNL1        0.1255
     31 C         140.9254  135.6309  154.8870 C.3     1  UNL1        0.1636
     32 O         142.1991  134.8841  154.6224 O.3     1  UNL1       -0.3501
     33 C         143.4289  135.1909  155.4245 C.3     1  UNL1        0.1636
     34 C         143.3850  136.2446  156.4912 C.3     1  UNL1        0.1255
@<TRIPOS>BOND
     1    21    22    1
     2    22    11    1
     3    11    12   ar
     4    12    13   ar
     5    13    14    1
     6    13    15   ar
     7    15    16    1
     8    15    17   ar
     9    17    18   ar
    10    18     7    1
    11     7     8    2
    12     7     9   am
    13     1     9    1
    14     1     2    1
    15     2     3    1
    16     3     4    1
    17     4    25    1
    18    25    26    1
    19    26    27    1
    20    27    28    2
    21    27    29   am
    22    29    30    1
    23    30    31    1
    24    31    32    1
    25    32    33    1
    26    33    34    1
    27     4     5    1
    28     5     6    1
    29     6    23    1
    30    23    24    1
    31    18    11   ar
    32     6     1    1
    33    34    29    1
    34    14    19    1
    35    14    20    1
    36     9    10    1
@<TRIPOS>MOLECULE
*****
 34 36 0 0 0
SMALL
GASTEIGER

@<TRIPOS>ATOM
      1 C         140.6672  138.7621  162.9040 C.3     1  UNL1        0.1017
      2 C         139.4644  138.0643  162.3416 C.3     1  UNL1        0.0394
      3 C         139.2271  138.0550  160.8604 C.3     1  UNL1        0.0740
      4 N         140.1927  138.7434  159.9418 N.3     1  UNL1       -0.2701
      5 C         141.3955  139.4412  160.5043 C.3     1  UNL1        0.1037
      6 C         141.6327  139.4505  161.9854 C.3     1  UNL1        0.1490
      7 C         140.3590  139.8881  165.2250 C.2     1  UNL1        0.2488
      8 O         139.5763  140.9955  164.5839 O.2     1  UNL1       -0.2700
      9 N         140.9045  138.7715  164.3851 N.am    1  UNL1       -0.2999
     10 H         141.4183  138.0447  164.8059 H       1  UNL1        0.1498
     11 C         141.9744  139.6544  167.2464 C.ar    1  UNL1        0.1443
     12 C         142.2117  139.6638  168.7275 C.ar    1  UNL1        0.0520
     13 C         141.0709  139.9161  169.6682 C.ar    1  UNL1        0.0553
     14 N         141.3083  139.9255  171.1494 N.pl3   1  UNL1       -0.3563
     15 C         139.6929  140.1592  169.1279 C.ar    1  UNL1        0.0709
     16 CL        138.5522  140.4116  170.0687 Cl      1  UNL1       -0.0810
     17 C         139.4556  140.1499  167.6469 C.ar    1  UNL1        0.0202
     18 C         140.5964  139.8975  166.7061 C.ar    1  UNL1        0.0882
     19 H         142.2127  139.7660  171.5040 H       1  UNL1        0.1424
     20 H         140.5596  140.0911  171.7668 H       1  UNL1        0.1424
     21 C         143.9040  138.1303  166.4075 C.3     1  UNL1        0.2525
     22 O         143.1151  139.4021  166.3057 O.3     1  UNL1       -0.4712
     23 O         142.8355  140.1483  162.5478 O.3     1  UNL1       -0.3505
     24 C         144.1017  139.3818  162.7913 C.3     1  UNL1        0.1741
     25 C         139.9554  138.7340  158.4608 C.3     1  UNL1        0.0818
     26 C         141.1192  138.7080  157.5149 C.3     1  UNL1        0.1026
     27 C         141.9775  137.4818  157.4154 C.2     1  UNL1        0.2272
     28 O         143.0244  137.2127  158.4553 O.2     1  UNL1       -0.2748
     29 N         141.7888  136.5247  156.2759 N.am    1  UNL1       -0.2743
     30 C         140.7418  136.7938  155.2359 C.3     1  UNL1        0.1255
     31 C         140.5531  135.8368  154.0964 C.3     1  UNL1        0.1636
     32 O         141.4114  134.6106  153.9969 O.3     1  UNL1       -0.3501
     33 C         142.4584  134.3415  155.0369 C.3     1  UNL1        0.1636
     34 C         142.6471  135.2986  156.1763 C.3     1  UNL1        0.1255
@<TRIPOS>BOND
     1    21    22    1
     2    22    11    1
     3    11    12   ar
     4    12    13   ar
     5    13    14    1
     6    13    15   ar
     7    15    16    1
     8    15    17   ar
     9    17    18   ar
    10    18     7    1
    11     7     8    2
    12     7     9   am
    13     1     9    1
    14     1     2    1
    15     2     3    1
    16     3     4    1
    17     4    25    1
    18    25    26    1
    19    26    27    1
    20    27    28    2
    21    27    29   am
    22    29    30    1
    23    30    31    1
    24    31    32    1
    25    32    33    1
    26    33    34    1
    27     4     5    1
    28     5     6    1
    29     6    23    1
    30    23    24    1
    31    18    11   ar
    32     6     1    1
    33    34    29    1
    34    14    19    1
    35    14    20    1
    36     9    10    1
@<TRIPOS>MOLECULE
*****
 34 36 0 0 0
SMALL
GASTEIGER

@<TRIPOS>ATOM
      1 C         140.2508  139.9619  162.9098 C.3     1  UNL1        0.1017
      2 C         141.3992  139.5217  162.0511 C.3     1  UNL1        0.0394
      3 C         141.1706  139.1868  160.6069 C.3     1  UNL1        0.0740
      4 N         139.7936  139.2921  160.0215 N.3     1  UNL1       -0.2701
      5 C         138.6452  139.7323  160.8802 C.3     1  UNL1        0.1037
      6 C         138.8737  140.0672  162.3243 C.3     1  UNL1        0.1490
      7 C         140.3686  139.2261  165.3987 C.2     1  UNL1        0.2488
      8 O         140.0294  137.8207  164.9994 O.2     1  UNL1       -0.2700
      9 N         140.4793  140.2967  164.3540 N.am    1  UNL1       -0.2999
     10 H         140.7020  141.2192  164.6161 H       1  UNL1        0.1498
     11 C         141.9948  139.6468  167.3809 C.ar    1  UNL1        0.1443
     12 C         142.2233  139.9817  168.8250 C.ar    1  UNL1        0.0520
     13 C         141.0542  140.2309  169.7312 C.ar    1  UNL1        0.0553
     14 N         141.2828  140.5658  171.1754 N.pl3   1  UNL1       -0.3563
     15 C         139.6566  140.1452  169.1933 C.ar    1  UNL1        0.0709
     16 CL        138.4876  140.3944  170.0995 Cl      1  UNL1       -0.0810
     17 C         139.4281  139.8103  167.7491 C.ar    1  UNL1        0.0202
     18 C         140.5972  139.5611  166.8429 C.ar    1  UNL1        0.0882
     19 H         142.2001  140.6221  171.5285 H       1  UNL1        0.1424
     20 H         140.5155  140.7294  171.7702 H       1  UNL1        0.1424
     21 C         143.8292  138.0533  166.4614 C.3     1  UNL1        0.2525
     22 O         143.1638  139.3975  166.4747 O.3     1  UNL1       -0.4712
     23 O         137.7253  140.5074  163.1830 O.3     1  UNL1       -0.3505
     24 C         137.3225  141.9519  163.2138 C.3     1  UNL1        0.1741
     25 C         139.5651  138.9573  158.5773 C.3     1  UNL1        0.0818
     26 C         140.6418  138.2758  157.7859 C.3     1  UNL1        0.1026
     27 C         140.2757  137.3127  156.6957 C.2     1  UNL1        0.2272
     28 O         138.8637  137.2496  156.1936 O.2     1  UNL1       -0.2748
     29 N         141.3218  136.4127  156.1076 N.am    1  UNL1       -0.2743
     30 C         142.7339  136.4759  156.6097 C.3     1  UNL1        0.1255
     31 C         143.7799  135.5759  156.0216 C.3     1  UNL1        0.1636
     32 O         143.4139  134.6128  154.9314 O.3     1  UNL1       -0.3501
     33 C         142.0019  134.5497  154.4293 C.3     1  UNL1        0.1636
     34 C         140.9558  135.4497  155.0174 C.3     1  UNL1        0.1255
@<TRIPOS>BOND
     1    21    22    1
     2    22    11    1
     3    11    12   ar
     4    12    13   ar
     5    13    14    1
     6    13    15   ar
     7    15    16    1
     8    15    17   ar
     9    17    18   ar
    10    18     7    1
    11     7     8    2
    12     7     9   am
    13     1     9    1
    14     1     2    1
    15     2     3    1
    16     3     4    1
    17     4    25    1
    18    25    26    1
    19    26    27    1
    20    27    28    2
    21    27    29   am
    22    29    30    1
    23    30    31    1
    24    31    32    1
    25    32    33    1
    26    33    34    1
    27     4     5    1
    28     5     6    1
    29     6    23    1
    30    23    24    1
    31    18    11   ar
    32     6     1    1
    33    34    29    1
    34    14    19    1
    35    14    20    1
    36     9    10    1
