@<TRIPOS>MOLECULE
*****
 32 35 0 0 0
SMALL
GASTEIGER

@<TRIPOS>ATOM
      1 N         142.7230  138.0997  161.0986 N.3     1  UNL1       -0.2673
      2 C         143.9498  138.7490  161.6669 C.3     1  UNL1        0.1035
      3 C         144.0784  138.9411  163.1490 C.3     1  UNL1        0.1470
      4 C         144.2071  139.1332  164.6311 C.3     1  UNL1        0.1037
      5 N         143.1088  138.6760  165.5448 N.3     1  UNL1       -0.2647
      6 C         141.8819  138.0267  164.9763 C.3     1  UNL1        0.1037
      7 C         141.7533  137.8346  163.4942 C.3     1  UNL1        0.1470
      8 C         141.6247  137.6425  162.0122 C.3     1  UNL1        0.1035
      9 O         142.9802  138.4839  164.0626 O.3     1  UNL1       -0.3530
     10 C         142.5943  137.9075  159.6164 C.3     1  UNL1        0.0913
     11 C         141.3876  138.4295  158.8944 C.3     1  UNL1        0.1087
     12 N         141.1705  139.9084  158.7682 N.3     1  UNL1       -0.1778
     13 H         142.0668  140.3551  158.9617 H       1  UNL1        0.1488
     14 S         140.1507  140.5929  159.6293 S.O2    1  UNL1        0.0642
     15 O         141.2080  140.8785  160.6543 O.2     1  UNL1       -0.1529
     16 O         139.0935  140.3073  158.6043 O.2     1  UNL1       -0.1529
     17 C         139.5973  143.8063  159.7608 C.3     1  UNL1        0.0571
     18 C         138.8766  142.7545  160.5508 C.ar    1  UNL1        0.1192
     19 N         137.7750  142.9950  161.5400 N.ar    1  UNL1       -0.0803
     20 O         137.3485  141.6666  162.0910 O.2     1  UNL1       -0.3567
     21 C         138.1866  140.6051  161.4423 C.ar    1  UNL1        0.1729
     22 C         138.0961  139.1302  161.7001 C.3     1  UNL1        0.0768
     23 C         139.1310  141.2774  160.4904 C.ar    1  UNL1        0.1712
     24 C         143.2374  138.8681  167.0268 C.3     1  UNL1        0.0993
     25 C         142.5855  140.0452  167.6899 C.ar    1  UNL1       -0.0061
     26 C         142.1020  141.1992  166.8626 C.ar    1  UNL1       -0.0022
     27 C         141.4501  142.3762  167.5256 C.ar    1  UNL1        0.0100
     28 C         141.2818  142.3992  169.0160 C.ar    1  UNL1        0.0684
     29 C         141.7654  141.2452  169.8433 C.ar    1  UNL1        0.0100
     30 C         142.4172  140.0682  169.1802 C.ar    1  UNL1       -0.0022
     31 C         140.6299  143.5763  169.6791 C.1     1  UNL1        0.1004
     32 N         139.9781  144.7533  170.3421 N.1     1  UNL1       -0.1908
@<TRIPOS>BOND
     1    17    18    1
     2    18    19   ar
     3    19    20   ar
     4    20    21   ar
     5    21    22    1
     6    21    23   ar
     7    23    14    1
     8    14    15    2
     9    14    16    2
    10    14    12    1
    11    12    11    1
    12    11    10    1
    13    10     1    1
    14     1     2    1
    15     2     3    1
    16     3     4    1
    17     4     5    1
    18     5    24    1
    19    24    25    1
    20    25    26   ar
    21    26    27   ar
    22    27    28   ar
    23    28    31    1
    24    31    32    3
    25    28    29   ar
    26    29    30   ar
    27     5     6    1
    28     6     7    1
    29     7     8    1
    30     7     9    1
    31    23    18   ar
    32     8     1    1
    33     9     3    1
    34    30    25   ar
    35    12    13    1
@<TRIPOS>MOLECULE
*****
 32 35 0 0 0
SMALL
GASTEIGER

@<TRIPOS>ATOM
      1 N         143.0091  139.0234  160.6806 N.3     1  UNL1       -0.2673
      2 C         144.1166  139.7090  161.4244 C.3     1  UNL1        0.1035
      3 C         144.2051  139.5877  162.9169 C.3     1  UNL1        0.1470
      4 C         144.2936  139.4663  164.4094 C.3     1  UNL1        0.1037
      5 N         143.2746  138.6593  165.1579 N.3     1  UNL1       -0.2647
      6 C         142.1671  137.9736  164.4140 C.3     1  UNL1        0.1037
      7 C         142.0786  138.0950  162.9216 C.3     1  UNL1        0.1470
      8 C         141.9901  138.2164  161.4291 C.3     1  UNL1        0.1035
      9 O         143.1861  138.7806  163.6654 O.3     1  UNL1       -0.3530
     10 C         142.9206  139.1448  159.1881 C.3     1  UNL1        0.0913
     11 C         142.6457  137.9303  158.3518 C.3     1  UNL1        0.1087
     12 N         143.3334  137.7585  157.0298 N.3     1  UNL1       -0.1778
     13 H         142.9589  138.4749  156.4078 H       1  UNL1        0.1488
     14 S         143.2342  136.4536  156.2968 S.O2    1  UNL1        0.0642
     15 O         144.6051  136.6692  155.7274 O.2     1  UNL1       -0.1529
     16 O         141.8633  136.2380  156.8661 O.2     1  UNL1       -0.1529
     17 C         144.1551  133.5380  157.4371 C.3     1  UNL1        0.0571
     18 C         143.5583  133.8086  156.0878 C.ar    1  UNL1        0.1192
     19 N         143.2800  132.7865  155.0258 N.ar    1  UNL1       -0.0803
     20 O         142.6847  133.4951  153.8453 O.2     1  UNL1       -0.3567
     21 C         142.5951  134.9550  154.1777 C.ar    1  UNL1        0.1729
     22 C         142.0596  136.0320  153.2815 C.3     1  UNL1        0.0768
     23 C         143.1350  135.1488  155.5637 C.ar    1  UNL1        0.1712
     24 C         143.3631  138.5379  166.6504 C.3     1  UNL1        0.0993
     25 C         142.5752  139.4663  167.5264 C.ar    1  UNL1       -0.0061
     26 C         141.8690  140.6455  166.9258 C.ar    1  UNL1       -0.0022
     27 C         141.0811  141.5739  167.8017 C.ar    1  UNL1        0.0100
     28 C         140.9996  141.3231  169.2783 C.ar    1  UNL1        0.0684
     29 C         141.7058  140.1440  169.8790 C.ar    1  UNL1        0.0100
     30 C         142.4936  139.2156  169.0030 C.ar    1  UNL1       -0.0022
     31 C         140.2117  142.2516  170.1544 C.1     1  UNL1        0.1004
     32 N         139.4240  143.1800  171.0304 N.1     1  UNL1       -0.1908
@<TRIPOS>BOND
     1    17    18    1
     2    18    19   ar
     3    19    20   ar
     4    20    21   ar
     5    21    22    1
     6    21    23   ar
     7    23    14    1
     8    14    15    2
     9    14    16    2
    10    14    12    1
    11    12    11    1
    12    11    10    1
    13    10     1    1
    14     1     2    1
    15     2     3    1
    16     3     4    1
    17     4     5    1
    18     5    24    1
    19    24    25    1
    20    25    26   ar
    21    26    27   ar
    22    27    28   ar
    23    28    31    1
    24    31    32    3
    25    28    29   ar
    26    29    30   ar
    27     5     6    1
    28     6     7    1
    29     7     8    1
    30     7     9    1
    31    23    18   ar
    32     8     1    1
    33     9     3    1
    34    30    25   ar
    35    12    13    1
@<TRIPOS>MOLECULE
*****
 32 35 0 0 0
SMALL
GASTEIGER

@<TRIPOS>ATOM
      1 N         139.4121  138.6752  161.1781 N.3     1  UNL1       -0.2673
      2 C         139.9940  137.6718  162.1291 C.3     1  UNL1        0.1035
      3 C         139.7899  137.8326  163.6064 C.3     1  UNL1        0.1470
      4 C         139.5859  137.9933  165.0838 C.3     1  UNL1        0.1037
      5 N         138.8000  139.1575  165.6101 N.3     1  UNL1       -0.2647
      6 C         138.2181  140.1610  164.6590 C.3     1  UNL1        0.1037
      7 C         138.4221  140.0002  163.1817 C.3     1  UNL1        0.1470
      8 C         138.6262  139.8394  161.7044 C.3     1  UNL1        0.1035
      9 O         139.0040  138.9968  164.1327 O.3     1  UNL1       -0.3530
     10 C         139.6161  138.5145  159.7007 C.3     1  UNL1        0.0913
     11 C         140.9998  138.5694  159.1243 C.3     1  UNL1        0.1087
     12 N         141.7463  139.8700  159.0883 N.3     1  UNL1       -0.1778
     13 H         142.2429  139.9000  158.1979 H       1  UNL1        0.1488
     14 S         142.7513  140.1877  160.1555 S.O2    1  UNL1        0.0642
     15 O         143.7421  139.2764  159.4938 O.2     1  UNL1       -0.1529
     16 O         141.7606  141.0989  160.8173 O.2     1  UNL1       -0.1529
     17 C         144.7452  142.7706  160.2050 C.3     1  UNL1        0.0571
     18 C         144.6729  141.6926  161.2454 C.ar    1  UNL1        0.1192
     19 N         145.5044  141.6126  162.4913 N.ar    1  UNL1       -0.0803
     20 O         145.1017  140.3758  163.2386 O.2     1  UNL1       -0.3567
     21 C         144.0214  139.6915  162.4545 C.ar    1  UNL1        0.1729
     22 C         143.3280  138.4172  162.8355 C.3     1  UNL1        0.0768
     23 C         143.7564  140.5053  161.2227 C.ar    1  UNL1        0.1712
     24 C         138.5960  139.3183  167.0874 C.3     1  UNL1        0.0993
     25 C         139.5012  140.2176  167.8761 C.ar    1  UNL1       -0.0061
     26 C         139.2762  140.4048  169.3472 C.ar    1  UNL1       -0.0022
     27 C         140.1813  141.3040  170.1359 C.ar    1  UNL1        0.0100
     28 C         141.3115  142.0160  169.4535 C.ar    1  UNL1        0.0684
     29 C         141.5365  141.8288  167.9823 C.ar    1  UNL1        0.0100
     30 C         140.6313  140.9296  167.1936 C.ar    1  UNL1       -0.0022
     31 C         142.2167  142.9153  170.2422 C.1     1  UNL1        0.1004
     32 N         143.1219  143.8145  171.0308 N.1     1  UNL1       -0.1908
@<TRIPOS>BOND
     1    17    18    1
     2    18    19   ar
     3    19    20   ar
     4    20    21   ar
     5    21    22    1
     6    21    23   ar
     7    23    14    1
     8    14    15    2
     9    14    16    2
    10    14    12    1
    11    12    11    1
    12    11    10    1
    13    10     1    1
    14     1     2    1
    15     2     3    1
    16     3     4    1
    17     4     5    1
    18     5    24    1
    19    24    25    1
    20    25    26   ar
    21    26    27   ar
    22    27    28   ar
    23    28    31    1
    24    31    32    3
    25    28    29   ar
    26    29    30   ar
    27     5     6    1
    28     6     7    1
    29     7     8    1
    30     7     9    1
    31    23    18   ar
    32     8     1    1
    33     9     3    1
    34    30    25   ar
    35    12    13    1
@<TRIPOS>MOLECULE
*****
 32 35 0 0 0
SMALL
GASTEIGER

@<TRIPOS>ATOM
      1 N         138.4090  141.6551  160.6410 N.3     1  UNL1       -0.2673
      2 C         138.7700  140.2029  160.7441 C.3     1  UNL1        0.1035
      3 C         138.7432  139.5164  162.0775 C.3     1  UNL1        0.1470
      4 C         138.7164  138.8297  163.4109 C.3     1  UNL1        0.1037
      5 N         138.3286  139.5954  164.6411 N.3     1  UNL1       -0.2647
      6 C         137.9676  141.0477  164.5379 C.3     1  UNL1        0.1037
      7 C         137.9944  141.7343  163.2045 C.3     1  UNL1        0.1470
      8 C         138.0212  142.4208  161.8712 C.3     1  UNL1        0.1035
      9 O         138.3554  140.2820  163.3077 O.3     1  UNL1       -0.3530
     10 C         138.4358  142.3418  159.3076 C.3     1  UNL1        0.0913
     11 C         139.4923  143.3647  159.0118 C.3     1  UNL1        0.1087
     12 N         140.9173  143.1056  159.4021 N.3     1  UNL1       -0.1778
     13 H         141.0204  142.0943  159.4862 H       1  UNL1        0.1488
     14 S         141.4704  143.7034  160.6617 S.O2    1  UNL1        0.0642
     15 O         141.3219  142.3813  161.3544 O.2     1  UNL1       -0.1529
     16 O         141.6189  145.0255  159.9690 O.2     1  UNL1       -0.1529
     17 C         144.5357  143.4059  161.7411 C.3     1  UNL1        0.0571
     18 C         143.4325  144.1645  162.4175 C.ar    1  UNL1        0.1192
     19 N         143.5446  144.9195  163.7087 N.ar    1  UNL1       -0.0803
     20 O         142.2049  145.5229  164.0106 O.2     1  UNL1       -0.3567
     21 C         141.2648  145.1408  162.9059 C.ar    1  UNL1        0.1729
     22 C         139.8198  145.5299  162.8039 C.3     1  UNL1        0.0768
     23 C         142.0235  144.3012  161.9213 C.ar    1  UNL1        0.1712
     24 C         138.3018  138.9089  165.9745 C.3     1  UNL1        0.0993
     25 C         138.9763  139.5396  167.1566 C.ar    1  UNL1       -0.0061
     26 C         140.3512  140.1219  167.0131 C.ar    1  UNL1       -0.0022
     27 C         141.0257  140.7526  168.1951 C.ar    1  UNL1        0.0100
     28 C         140.3253  140.8011  169.5206 C.ar    1  UNL1        0.0684
     29 C         138.9504  140.2189  169.6641 C.ar    1  UNL1        0.0100
     30 C         138.2759  139.5881  168.4821 C.ar    1  UNL1       -0.0022
     31 C         140.9998  141.4319  170.7027 C.1     1  UNL1        0.1004
     32 N         141.6742  142.0627  171.8847 N.1     1  UNL1       -0.1908
@<TRIPOS>BOND
     1    17    18    1
     2    18    19   ar
     3    19    20   ar
     4    20    21   ar
     5    21    22    1
     6    21    23   ar
     7    23    14    1
     8    14    15    2
     9    14    16    2
    10    14    12    1
    11    12    11    1
    12    11    10    1
    13    10     1    1
    14     1     2    1
    15     2     3    1
    16     3     4    1
    17     4     5    1
    18     5    24    1
    19    24    25    1
    20    25    26   ar
    21    26    27   ar
    22    27    28   ar
    23    28    31    1
    24    31    32    3
    25    28    29   ar
    26    29    30   ar
    27     5     6    1
    28     6     7    1
    29     7     8    1
    30     7     9    1
    31    23    18   ar
    32     8     1    1
    33     9     3    1
    34    30    25   ar
    35    12    13    1
@<TRIPOS>MOLECULE
*****
 32 35 0 0 0
SMALL
GASTEIGER

@<TRIPOS>ATOM
      1 N         142.6491  138.4703  161.0859 N.3     1  UNL1       -0.2673
      2 C         143.9027  139.0484  161.6727 C.3     1  UNL1        0.1035
      3 C         144.0836  139.0911  163.1612 C.3     1  UNL1        0.1470
      4 C         144.2645  139.1339  164.6496 C.3     1  UNL1        0.1037
      5 N         143.1918  138.5986  165.5512 N.3     1  UNL1       -0.2647
      6 C         141.9382  138.0206  164.9643 C.3     1  UNL1        0.1037
      7 C         141.7573  137.9778  163.4759 C.3     1  UNL1        0.1470
      8 C         141.5765  137.9351  161.9875 C.3     1  UNL1        0.1035
      9 O         143.0109  138.5558  164.0627 O.3     1  UNL1       -0.3530
     10 C         142.4682  138.4276  159.5974 C.3     1  UNL1        0.0913
     11 C         141.6454  139.4775  158.9115 C.3     1  UNL1        0.1087
     12 N         141.8832  140.9287  159.2074 N.3     1  UNL1       -0.1778
     13 H         142.7222  140.9777  159.7854 H       1  UNL1        0.1488
     14 S         140.8284  141.7342  159.9063 S.O2    1  UNL1        0.0642
     15 O         140.1035  141.9137  158.6054 O.2     1  UNL1       -0.1529
     16 O         141.5532  141.5548  161.2071 O.2     1  UNL1       -0.1529
     17 C         138.0076  140.5910  161.0836 C.3     1  UNL1        0.0571
     18 C         138.4770  142.0143  161.1463 C.ar    1  UNL1        0.1192
     19 N         137.7322  143.1619  161.7611 N.ar    1  UNL1       -0.0803
     20 O         138.5684  144.3968  161.5999 O.2     1  UNL1       -0.3567
     21 C         139.8300  144.0122  160.8855 C.ar    1  UNL1        0.1729
     22 C         140.9513  144.9377  160.5163 C.3     1  UNL1        0.0768
     23 C         139.7735  142.5398  160.6051 C.ar    1  UNL1        0.1712
     24 C         143.3727  138.6414  167.0396 C.3     1  UNL1        0.0993
     25 C         142.5442  139.5769  167.8693 C.ar    1  UNL1       -0.0061
     26 C         142.1851  139.2112  169.2790 C.ar    1  UNL1       -0.0022
     27 C         141.3566  140.1467  170.1087 C.ar    1  UNL1        0.0100
     28 C         140.8871  141.4479  169.5287 C.ar    1  UNL1        0.0684
     29 C         141.2462  141.8136  168.1189 C.ar    1  UNL1        0.0100
     30 C         142.0747  140.8781  167.2893 C.ar    1  UNL1       -0.0022
     31 C         140.0586  142.3834  170.3583 C.1     1  UNL1        0.1004
     32 N         139.2301  143.3190  171.1880 N.1     1  UNL1       -0.1908
@<TRIPOS>BOND
     1    17    18    1
     2    18    19   ar
     3    19    20   ar
     4    20    21   ar
     5    21    22    1
     6    21    23   ar
     7    23    14    1
     8    14    15    2
     9    14    16    2
    10    14    12    1
    11    12    11    1
    12    11    10    1
    13    10     1    1
    14     1     2    1
    15     2     3    1
    16     3     4    1
    17     4     5    1
    18     5    24    1
    19    24    25    1
    20    25    26   ar
    21    26    27   ar
    22    27    28   ar
    23    28    31    1
    24    31    32    3
    25    28    29   ar
    26    29    30   ar
    27     5     6    1
    28     6     7    1
    29     7     8    1
    30     7     9    1
    31    23    18   ar
    32     8     1    1
    33     9     3    1
    34    30    25   ar
    35    12    13    1
@<TRIPOS>MOLECULE
*****
 32 35 0 0 0
SMALL
GASTEIGER

@<TRIPOS>ATOM
      1 N         138.4259  139.3254  161.2034 N.3     1  UNL1       -0.2673
      2 C         138.9434  138.0977  161.8925 C.3     1  UNL1        0.1035
      3 C         138.9930  138.0433  163.3907 C.3     1  UNL1        0.1470
      4 C         139.0426  137.9888  164.8889 C.3     1  UNL1        0.1037
      5 N         138.5748  139.1621  165.6979 N.3     1  UNL1       -0.2647
      6 C         138.0573  140.3898  165.0087 C.3     1  UNL1        0.1037
      7 C         138.0077  140.4443  163.5106 C.3     1  UNL1        0.1470
      8 C         137.9581  140.4987  162.0124 C.3     1  UNL1        0.1035
      9 O         138.5251  139.2166  164.1997 O.3     1  UNL1       -0.3530
     10 C         138.3763  139.3798  159.7051 C.3     1  UNL1        0.0913
     11 C         139.4369  140.1206  158.9460 C.3     1  UNL1        0.1087
     12 N         140.8388  140.1761  159.4769 N.3     1  UNL1       -0.1778
     13 H         140.9279  139.4175  160.1530 H       1  UNL1        0.1488
     14 S         141.3360  141.4193  160.1530 S.O2    1  UNL1        0.0642
     15 O         141.5163  140.6529  161.4297 O.2     1  UNL1       -0.1529
     16 O         141.1558  142.1857  158.8762 O.2     1  UNL1       -0.1529
     17 C         139.4847  143.7094  161.5592 C.3     1  UNL1        0.0571
     18 C         140.9823  143.7152  161.4754 C.ar    1  UNL1        0.1192
     19 N         141.8919  144.7746  162.0233 N.ar    1  UNL1       -0.0803
     20 O         143.3051  144.3767  161.7155 O.2     1  UNL1       -0.3567
     21 C         143.2688  143.0714  160.9774 C.ar    1  UNL1        0.1729
     22 C         144.4592  142.3088  160.4758 C.3     1  UNL1        0.0768
     23 C         141.8333  142.6625  160.8290 C.ar    1  UNL1        0.1712
     24 C         138.6244  139.1077  167.1961 C.3     1  UNL1        0.0993
     25 C         139.5245  140.0404  167.9511 C.ar    1  UNL1       -0.0061
     26 C         139.1928  140.4239  169.3628 C.ar    1  UNL1       -0.0022
     27 C         140.0927  141.3566  170.1178 C.ar    1  UNL1        0.0100
     28 C         141.3244  141.9058  169.4611 C.ar    1  UNL1        0.0684
     29 C         141.6560  141.5224  168.0494 C.ar    1  UNL1        0.0100
     30 C         140.7561  140.5897  167.2944 C.ar    1  UNL1       -0.0022
     31 C         142.2244  142.8386  170.2161 C.1     1  UNL1        0.1004
     32 N         143.1244  143.7713  170.9711 N.1     1  UNL1       -0.1908
@<TRIPOS>BOND
     1    17    18    1
     2    18    19   ar
     3    19    20   ar
     4    20    21   ar
     5    21    22    1
     6    21    23   ar
     7    23    14    1
     8    14    15    2
     9    14    16    2
    10    14    12    1
    11    12    11    1
    12    11    10    1
    13    10     1    1
    14     1     2    1
    15     2     3    1
    16     3     4    1
    17     4     5    1
    18     5    24    1
    19    24    25    1
    20    25    26   ar
    21    26    27   ar
    22    27    28   ar
    23    28    31    1
    24    31    32    3
    25    28    29   ar
    26    29    30   ar
    27     5     6    1
    28     6     7    1
    29     7     8    1
    30     7     9    1
    31    23    18   ar
    32     8     1    1
    33     9     3    1
    34    30    25   ar
    35    12    13    1
@<TRIPOS>MOLECULE
*****
 32 35 0 0 0
SMALL
GASTEIGER

@<TRIPOS>ATOM
      1 N         144.2060  141.5586  160.3906 N.3     1  UNL1       -0.2673
      2 C         143.4425  140.2714  160.4905 C.3     1  UNL1        0.1035
      3 C         143.3199  139.5728  161.8122 C.3     1  UNL1        0.1470
      4 C         143.1973  138.8742  163.1339 C.3     1  UNL1        0.1037
      5 N         143.8382  139.4629  164.3557 N.3     1  UNL1       -0.2647
      6 C         144.6017  140.7502  164.2557 C.3     1  UNL1        0.1037
      7 C         144.7243  141.4487  162.9340 C.3     1  UNL1        0.1470
      8 C         144.8469  142.1473  161.6123 C.3     1  UNL1        0.1035
      9 O         143.9608  140.1615  163.0340 O.3     1  UNL1       -0.3530
     10 C         144.3286  142.2573  159.0688 C.3     1  UNL1        0.0913
     11 C         143.2321  143.1648  158.5956 C.3     1  UNL1        0.1087
     12 N         142.6916  144.2267  159.5070 N.3     1  UNL1       -0.1778
     13 H         143.3605  144.3278  160.2704 H       1  UNL1        0.1488
     14 S         141.3398  144.0591  160.1350 S.O2    1  UNL1        0.0642
     15 O         141.9895  143.6664  161.4287 O.2     1  UNL1       -0.1529
     16 O         140.6901  144.4518  158.8414 O.2     1  UNL1       -0.1529
     17 C         139.3994  141.4515  159.8438 C.3     1  UNL1        0.0571
     18 C         139.0961  142.6929  160.6292 C.ar    1  UNL1        0.1192
     19 N         137.8476  142.9537  161.4186 N.ar    1  UNL1       -0.0803
     20 O         137.9679  144.3135  162.0404 O.2     1  UNL1       -0.3567
     21 C         139.2907  144.8931  161.6352 C.ar    1  UNL1        0.1729
     22 C         139.8229  146.2380  162.0325 C.3     1  UNL1        0.0768
     23 C         139.9880  143.8915  160.7631 C.ar    1  UNL1        0.1712
     24 C         143.7156  138.7643  165.6774 C.3     1  UNL1        0.0993
     25 C         142.6262  139.1525  166.6327 C.ar    1  UNL1       -0.0061
     26 C         142.9009  139.1941  168.1068 C.ar    1  UNL1       -0.0022
     27 C         141.8116  139.5823  169.0621 C.ar    1  UNL1        0.0100
     28 C         140.4476  139.9288  168.5434 C.ar    1  UNL1        0.0684
     29 C         140.1728  139.8873  167.0694 C.ar    1  UNL1        0.0100
     30 C         141.2621  139.4991  166.1140 C.ar    1  UNL1       -0.0022
     31 C         139.3582  140.3170  169.4987 C.1     1  UNL1        0.1004
     32 N         138.2689  140.7053  170.4540 N.1     1  UNL1       -0.1908
@<TRIPOS>BOND
     1    17    18    1
     2    18    19   ar
     3    19    20   ar
     4    20    21   ar
     5    21    22    1
     6    21    23   ar
     7    23    14    1
     8    14    15    2
     9    14    16    2
    10    14    12    1
    11    12    11    1
    12    11    10    1
    13    10     1    1
    14     1     2    1
    15     2     3    1
    16     3     4    1
    17     4     5    1
    18     5    24    1
    19    24    25    1
    20    25    26   ar
    21    26    27   ar
    22    27    28   ar
    23    28    31    1
    24    31    32    3
    25    28    29   ar
    26    29    30   ar
    27     5     6    1
    28     6     7    1
    29     7     8    1
    30     7     9    1
    31    23    18   ar
    32     8     1    1
    33     9     3    1
    34    30    25   ar
    35    12    13    1
@<TRIPOS>MOLECULE
*****
 32 35 0 0 0
SMALL
GASTEIGER

@<TRIPOS>ATOM
      1 N         142.8554  139.9161  159.9514 N.3     1  UNL1       -0.2673
      2 C         143.9464  139.2193  160.7090 C.3     1  UNL1        0.1035
      3 C         143.8047  138.9870  162.1841 C.3     1  UNL1        0.1470
      4 C         143.6631  138.7547  163.6593 C.3     1  UNL1        0.1037
      5 N         142.4304  139.2192  164.3767 N.3     1  UNL1       -0.2647
      6 C         141.3394  139.9160  163.6190 C.3     1  UNL1        0.1037
      7 C         141.4810  140.1483  162.1439 C.3     1  UNL1        0.1470
      8 C         141.6227  140.3806  160.6688 C.3     1  UNL1        0.1035
      9 O         142.5721  139.4515  162.9016 O.3     1  UNL1       -0.3530
     10 C         142.9970  140.1484  158.4762 C.3     1  UNL1        0.0913
     11 C         142.5485  139.0971  157.5049 C.3     1  UNL1        0.1087
     12 N         143.5133  138.0483  157.0364 N.3     1  UNL1       -0.1778
     13 H         143.9756  138.4227  156.2078 H       1  UNL1        0.1488
     14 S         143.0163  136.6803  156.6741 S.O2    1  UNL1        0.0642
     15 O         141.7977  136.8986  157.5210 O.2     1  UNL1       -0.1529
     16 O         144.2349  136.4619  155.8271 O.2     1  UNL1       -0.1529
     17 C         143.9166  133.8772  158.0819 C.3     1  UNL1        0.0571
     18 C         142.9331  134.0238  156.9588 C.ar    1  UNL1        0.1192
     19 N         142.1908  132.9076  156.2857 N.ar    1  UNL1       -0.0803
     20 O         141.3182  133.5062  155.2226 O.2     1  UNL1       -0.3567
     21 C         141.5212  134.9923  155.2387 C.ar    1  UNL1        0.1729
     22 C         140.8449  135.9844  154.3396 C.3     1  UNL1        0.0768
     23 C         142.5193  135.3122  156.3117 C.ar    1  UNL1        0.1712
     24 C         142.2888  138.9869  165.8518 C.3     1  UNL1        0.0993
     25 C         141.8450  140.1050  166.7480 C.ar    1  UNL1       -0.0061
     26 C         140.4579  140.1030  167.3189 C.ar    1  UNL1       -0.0022
     27 C         140.0141  141.2210  168.2150 C.ar    1  UNL1        0.0100
     28 C         140.9574  142.3410  168.5402 C.ar    1  UNL1        0.0684
     29 C         142.3445  142.3429  167.9693 C.ar    1  UNL1        0.0100
     30 C         142.7883  141.2249  167.0732 C.ar    1  UNL1       -0.0022
     31 C         140.5137  143.4591  169.4363 C.1     1  UNL1        0.1004
     32 N         140.0699  144.5771  170.3324 N.1     1  UNL1       -0.1908
@<TRIPOS>BOND
     1    17    18    1
     2    18    19   ar
     3    19    20   ar
     4    20    21   ar
     5    21    22    1
     6    21    23   ar
     7    23    14    1
     8    14    15    2
     9    14    16    2
    10    14    12    1
    11    12    11    1
    12    11    10    1
    13    10     1    1
    14     1     2    1
    15     2     3    1
    16     3     4    1
    17     4     5    1
    18     5    24    1
    19    24    25    1
    20    25    26   ar
    21    26    27   ar
    22    27    28   ar
    23    28    31    1
    24    31    32    3
    25    28    29   ar
    26    29    30   ar
    27     5     6    1
    28     6     7    1
    29     7     8    1
    30     7     9    1
    31    23    18   ar
    32     8     1    1
    33     9     3    1
    34    30    25   ar
    35    12    13    1
@<TRIPOS>MOLECULE
*****
 32 35 0 0 0
SMALL
GASTEIGER

@<TRIPOS>ATOM
      1 N         143.6755  139.3482  163.8110 N.3     1  UNL1       -0.2673
      2 C         143.5509  140.8351  163.6579 C.3     1  UNL1        0.1035
      3 C         143.5507  141.4508  162.2901 C.3     1  UNL1        0.1470
      4 C         143.5505  142.0665  160.9222 C.3     1  UNL1        0.1037
      5 N         143.6749  141.1952  159.7075 N.3     1  UNL1       -0.2647
      6 C         143.7996  139.7082  159.8607 C.3     1  UNL1        0.1037
      7 C         143.7997  139.0926  161.2285 C.3     1  UNL1        0.1470
      8 C         143.7999  138.4769  162.5963 C.3     1  UNL1        0.1035
      9 O         143.6751  140.5795  161.0754 O.3     1  UNL1       -0.3530
     10 C         143.6757  138.7325  165.1789 C.3     1  UNL1        0.0913
     11 C         142.6909  139.1970  166.2106 C.3     1  UNL1        0.1087
     12 N         143.0361  139.1136  167.6680 N.3     1  UNL1       -0.1778
     13 H         142.6787  138.2195  168.0046 H       1  UNL1        0.1488
     14 S         142.5397  140.1634  168.6175 S.O2    1  UNL1        0.0642
     15 O         142.2138  141.0578  167.4583 O.2     1  UNL1       -0.1529
     16 O         142.8657  139.2690  169.7767 O.2     1  UNL1       -0.1529
     17 C         139.4959  140.4279  169.7641 C.3     1  UNL1        0.0571
     18 C         140.6443  141.3348  170.0940 C.ar    1  UNL1        0.1192
     19 N         140.5952  142.5224  171.0089 N.ar    1  UNL1       -0.0803
     20 O         141.9640  143.1348  171.0473 O.2     1  UNL1       -0.3567
     21 C         142.8590  142.3256  170.1562 C.ar    1  UNL1        0.1729
     22 C         144.3141  142.5837  169.8993 C.3     1  UNL1        0.0768
     23 C         142.0434  141.2132  169.5670 C.ar    1  UNL1        0.1712
     24 C         143.6747  141.8109  158.3397 C.3     1  UNL1        0.0993
     25 C         144.9347  141.8306  157.5259 C.ar    1  UNL1       -0.0061
     26 C         146.0557  142.7537  157.9016 C.ar    1  UNL1       -0.0022
     27 C         147.3157  142.7735  157.0878 C.ar    1  UNL1        0.0100
     28 C         147.4545  141.8701  155.8985 C.ar    1  UNL1        0.0684
     29 C         146.3335  140.9470  155.5229 C.ar    1  UNL1        0.0100
     30 C         145.0736  140.9272  156.3366 C.ar    1  UNL1       -0.0022
     31 C         148.7145  141.8898  155.0847 C.1     1  UNL1        0.1004
     32 N         149.9744  141.9096  154.2709 N.1     1  UNL1       -0.1908
@<TRIPOS>BOND
     1    17    18    1
     2    18    19   ar
     3    19    20   ar
     4    20    21   ar
     5    21    22    1
     6    21    23   ar
     7    23    14    1
     8    14    15    2
     9    14    16    2
    10    14    12    1
    11    12    11    1
    12    11    10    1
    13    10     1    1
    14     1     2    1
    15     2     3    1
    16     3     4    1
    17     4     5    1
    18     5    24    1
    19    24    25    1
    20    25    26   ar
    21    26    27   ar
    22    27    28   ar
    23    28    31    1
    24    31    32    3
    25    28    29   ar
    26    29    30   ar
    27     5     6    1
    28     6     7    1
    29     7     8    1
    30     7     9    1
    31    23    18   ar
    32     8     1    1
    33     9     3    1
    34    30    25   ar
    35    12    13    1
