@<TRIPOS>MOLECULE
*****
 27 30 0 0 0
SMALL
GASTEIGER

@<TRIPOS>ATOM
      1 C         141.0896  136.8831  164.1669 C.3     1  UNL1        0.0847
      2 C         141.4855  138.3274  164.0814 C.3     1  UNL1        0.2772
      3 N         142.4700  137.8343  163.0627 N.2     1  UNL1       -0.0446
      4 C         143.2512  139.0138  162.5643 C.2     1  UNL1        0.3326
      5 N         144.3425  138.9777  161.5358 N.pl3   1  UNL1       -0.2451
      6 C         142.7497  140.2359  163.2751 C.2     1  UNL1        0.1616
      7 N         141.6584  139.8116  164.2127 N.2     1  UNL1       -0.2183
      8 H         144.6023  138.1222  161.1237 H       1  UNL1        0.2885
      9 H         144.7989  139.8094  161.2729 H       1  UNL1        0.2885
     10 C         140.4183  138.5185  165.1181 C.ar    1  UNL1        0.0437
     11 C         139.1836  137.6673  165.0892 C.ar    1  UNL1        0.0017
     12 C         138.1165  137.8585  166.1258 C.ar    1  UNL1       -0.0001
     13 C         138.2840  138.9009  167.1913 C.ar    1  UNL1        0.0000
     14 C         139.5187  139.7521  167.2202 C.ar    1  UNL1        0.0014
     15 C         140.5859  139.5609  166.1836 C.ar    1  UNL1        0.0017
     16 C         139.6863  140.7945  168.2857 C.ar    1  UNL1        0.0192
     17 C         140.3425  142.1030  167.9583 C.ar    1  UNL1        0.0031
     18 C         140.5100  143.1454  169.0238 C.ar    1  UNL1        0.0207
     19 C         140.0214  142.8793  170.4167 C.ar    1  UNL1        0.0989
     20 N         139.3652  141.5709  170.7442 N.ar    1  UNL1       -0.2423
     21 C         139.1976  140.5285  169.6787 C.ar    1  UNL1        0.0988
     22 C         143.2514  141.6362  163.0821 C.ar    1  UNL1        0.0247
     23 C         143.2079  142.2678  161.7222 C.ar    1  UNL1        0.0017
     24 C         143.7095  143.6681  161.5292 C.ar    1  UNL1        0.0001
     25 C         144.2547  144.4370  162.6961 C.ar    1  UNL1        0.0000
     26 C         144.2982  143.8055  164.0560 C.ar    1  UNL1        0.0001
     27 C         143.7966  142.4051  164.2490 C.ar    1  UNL1        0.0017
@<TRIPOS>BOND
     1     1     2    1
     2     2    10    1
     3    10    11   ar
     4    11    12   ar
     5    12    13   ar
     6    13    14   ar
     7    14    16    1
     8    16    17   ar
     9    17    18   ar
    10    18    19   ar
    11    19    20   ar
    12    20    21   ar
    13    14    15   ar
    14     2     3    1
    15     3     4    2
    16     4     5    1
    17     4     6    1
    18     6    22    1
    19    22    23   ar
    20    23    24   ar
    21    24    25   ar
    22    25    26   ar
    23    26    27   ar
    24     6     7    2
    25     7     2    1
    26    15    10   ar
    27    27    22   ar
    28    21    16   ar
    29     5     8    1
    30     5     9    1
@<TRIPOS>MOLECULE
*****
 27 30 0 0 0
SMALL
GASTEIGER

@<TRIPOS>ATOM
      1 C         138.0460  138.1022  166.1027 C.3     1  UNL1        0.0847
      2 C         139.1018  139.0043  166.6694 C.3     1  UNL1        0.2772
      3 N         138.2187  139.0154  167.8819 N.2     1  UNL1       -0.0446
      4 C         138.8673  139.8827  168.9198 C.2     1  UNL1        0.3326
      5 N         138.3268  140.1739  170.2884 N.pl3   1  UNL1       -0.2451
      6 C         140.1512  140.4076  168.3488 C.2     1  UNL1        0.1616
      7 N         140.2962  139.8647  166.9580 N.2     1  UNL1       -0.2183
      8 H         137.4706  139.7805  170.5735 H       1  UNL1        0.2885
      9 H         138.8283  140.7586  170.9015 H       1  UNL1        0.2885
     10 C         139.7642  138.8046  165.3385 C.ar    1  UNL1        0.0437
     11 C         139.1903  137.8293  164.3539 C.ar    1  UNL1        0.0017
     12 C         139.8527  137.6296  163.0230 C.ar    1  UNL1       -0.0001
     13 C         141.0890  138.4053  162.6767 C.ar    1  UNL1        0.0000
     14 C         141.6630  139.3805  163.6613 C.ar    1  UNL1        0.0014
     15 C         141.0005  139.5802  164.9921 C.ar    1  UNL1        0.0017
     16 C         142.8993  140.1562  163.3149 C.ar    1  UNL1        0.0192
     17 C         144.1070  140.0771  164.2009 C.ar    1  UNL1        0.0031
     18 C         145.3433  140.8527  163.8546 C.ar    1  UNL1        0.0207
     19 C         145.3719  141.7074  162.6223 C.ar    1  UNL1        0.0989
     20 N         144.1642  141.7864  161.7363 N.ar    1  UNL1       -0.2423
     21 C         142.9278  141.0108  162.0826 C.ar    1  UNL1        0.0988
     22 C         141.1200  141.3158  169.0461 C.ar    1  UNL1        0.0247
     23 C         140.6700  142.6618  169.5317 C.ar    1  UNL1        0.0017
     24 C         141.6388  143.5700  170.2290 C.ar    1  UNL1        0.0001
     25 C         143.0578  143.1324  170.4409 C.ar    1  UNL1        0.0000
     26 C         143.5080  141.7864  169.9553 C.ar    1  UNL1        0.0001
     27 C         142.5391  140.8781  169.2580 C.ar    1  UNL1        0.0017
@<TRIPOS>BOND
     1     1     2    1
     2     2    10    1
     3    10    11   ar
     4    11    12   ar
     5    12    13   ar
     6    13    14   ar
     7    14    16    1
     8    16    17   ar
     9    17    18   ar
    10    18    19   ar
    11    19    20   ar
    12    20    21   ar
    13    14    15   ar
    14     2     3    1
    15     3     4    2
    16     4     5    1
    17     4     6    1
    18     6    22    1
    19    22    23   ar
    20    23    24   ar
    21    24    25   ar
    22    25    26   ar
    23    26    27   ar
    24     6     7    2
    25     7     2    1
    26    15    10   ar
    27    27    22   ar
    28    21    16   ar
    29     5     8    1
    30     5     9    1
@<TRIPOS>MOLECULE
*****
 27 30 0 0 0
SMALL
GASTEIGER

@<TRIPOS>ATOM
      1 C         137.7671  138.7216  166.4257 C.3     1  UNL1        0.0847
      2 C         138.8509  139.6332  166.9200 C.3     1  UNL1        0.2772
      3 N         138.3867  139.1917  168.2763 N.2     1  UNL1       -0.0446
      4 C         139.2333  139.8829  169.3036 C.2     1  UNL1        0.3326
      5 N         139.1136  139.7320  170.7912 N.pl3   1  UNL1       -0.2451
      6 C         140.2208  140.7516  168.5823 C.2     1  UNL1        0.1616
      7 N         139.9844  140.5972  167.1090 N.2     1  UNL1       -0.2183
      8 H         138.4300  139.1345  171.1719 H       1  UNL1        0.2885
      9 H         139.7186  140.2304  171.3868 H       1  UNL1        0.2885
     10 C         139.0885  139.8841  165.4603 C.ar    1  UNL1        0.0437
     11 C         139.0799  138.7391  164.4913 C.ar    1  UNL1        0.0017
     12 C         139.3175  138.9901  163.0317 C.ar    1  UNL1       -0.0001
     13 C         139.5637  140.3860  162.5411 C.ar    1  UNL1        0.0000
     14 C         139.5723  141.5310  163.5100 C.ar    1  UNL1        0.0014
     15 C         139.3347  141.2800  164.9696 C.ar    1  UNL1        0.0017
     16 C         139.8186  142.9269  163.0193 C.ar    1  UNL1        0.0192
     17 C         140.8266  143.7975  163.7091 C.ar    1  UNL1        0.0031
     18 C         141.0729  145.1934  163.2185 C.ar    1  UNL1        0.0207
     19 C         140.3110  145.7188  162.0380 C.ar    1  UNL1        0.0989
     20 N         139.3029  144.8483  161.3483 N.ar    1  UNL1       -0.2423
     21 C         139.0567  143.4523  161.8389 C.ar    1  UNL1        0.0988
     22 C         141.2617  141.6218  169.2218 C.ar    1  UNL1        0.0247
     23 C         140.8678  142.9282  169.8447 C.ar    1  UNL1        0.0017
     24 C         141.9087  143.7984  170.4842 C.ar    1  UNL1        0.0001
     25 C         143.3438  143.3623  170.5008 C.ar    1  UNL1        0.0000
     26 C         143.7379  142.0559  169.8779 C.ar    1  UNL1        0.0001
     27 C         142.6969  141.1856  169.2384 C.ar    1  UNL1        0.0017
@<TRIPOS>BOND
     1     1     2    1
     2     2    10    1
     3    10    11   ar
     4    11    12   ar
     5    12    13   ar
     6    13    14   ar
     7    14    16    1
     8    16    17   ar
     9    17    18   ar
    10    18    19   ar
    11    19    20   ar
    12    20    21   ar
    13    14    15   ar
    14     2     3    1
    15     3     4    2
    16     4     5    1
    17     4     6    1
    18     6    22    1
    19    22    23   ar
    20    23    24   ar
    21    24    25   ar
    22    25    26   ar
    23    26    27   ar
    24     6     7    2
    25     7     2    1
    26    15    10   ar
    27    27    22   ar
    28    21    16   ar
    29     5     8    1
    30     5     9    1
@<TRIPOS>MOLECULE
*****
 27 30 0 0 0
SMALL
GASTEIGER

@<TRIPOS>ATOM
      1 C         145.1224  140.8166  164.0701 C.3     1  UNL1        0.0847
      2 C         143.7017  141.2952  164.1190 C.3     1  UNL1        0.2772
      3 N         144.1218  142.1678  162.9735 N.2     1  UNL1       -0.0446
      4 C         142.9349  142.9824  162.5518 C.2     1  UNL1        0.3326
      5 N         142.9065  143.9893  161.4404 N.pl3   1  UNL1       -0.2451
      6 C         141.7812  142.6132  163.4366 C.2     1  UNL1        0.1616
      7 N         142.2552  141.5704  164.4052 N.2     1  UNL1       -0.2183
      8 H         143.7194  144.1633  160.9130 H       1  UNL1        0.2885
      9 H         142.0751  144.4762  161.2384 H       1  UNL1        0.2885
     10 C         143.5786  140.3225  165.2543 C.ar    1  UNL1        0.0437
     11 C         144.2099  138.9658  165.1513 C.ar    1  UNL1        0.0017
     12 C         144.0868  137.9931  166.2865 C.ar    1  UNL1       -0.0001
     13 C         143.3324  138.3773  167.5248 C.ar    1  UNL1        0.0000
     14 C         142.7011  139.7340  167.6278 C.ar    1  UNL1        0.0014
     15 C         142.8242  140.7066  166.4926 C.ar    1  UNL1        0.0017
     16 C         141.9467  140.1182  168.8661 C.ar    1  UNL1        0.0192
     17 C         140.4468  140.1334  168.8561 C.ar    1  UNL1        0.0031
     18 C         139.6925  140.5175  170.0944 C.ar    1  UNL1        0.0207
     19 C         140.4379  140.8864  171.3427 C.ar    1  UNL1        0.0989
     20 N         141.9378  140.8712  171.3526 N.ar    1  UNL1       -0.2423
     21 C         142.6922  140.4871  170.1143 C.ar    1  UNL1        0.0988
     22 C         140.3968  143.1861  163.3654 C.ar    1  UNL1        0.0247
     23 C         139.4550  142.7399  162.2865 C.ar    1  UNL1        0.0017
     24 C         138.0707  143.3128  162.2152 C.ar    1  UNL1        0.0001
     25 C         137.6279  144.3319  163.2229 C.ar    1  UNL1        0.0000
     26 C         138.5696  144.7781  164.3018 C.ar    1  UNL1        0.0001
     27 C         139.9541  144.2052  164.3731 C.ar    1  UNL1        0.0017
@<TRIPOS>BOND
     1     1     2    1
     2     2    10    1
     3    10    11   ar
     4    11    12   ar
     5    12    13   ar
     6    13    14   ar
     7    14    16    1
     8    16    17   ar
     9    17    18   ar
    10    18    19   ar
    11    19    20   ar
    12    20    21   ar
    13    14    15   ar
    14     2     3    1
    15     3     4    2
    16     4     5    1
    17     4     6    1
    18     6    22    1
    19    22    23   ar
    20    23    24   ar
    21    24    25   ar
    22    25    26   ar
    23    26    27   ar
    24     6     7    2
    25     7     2    1
    26    15    10   ar
    27    27    22   ar
    28    21    16   ar
    29     5     8    1
    30     5     9    1
@<TRIPOS>MOLECULE
*****
 27 30 0 0 0
SMALL
GASTEIGER

@<TRIPOS>ATOM
      1 C         142.8841  138.3435  165.3436 C.3     1  UNL1        0.0847
      2 C         142.1545  138.6960  164.0813 C.3     1  UNL1        0.2772
      3 N         143.4920  138.4852  163.4358 N.2     1  UNL1       -0.0446
      4 C         143.3413  138.7360  161.9646 C.2     1  UNL1        0.3326
      5 N         144.4300  138.6382  160.9374 N.pl3   1  UNL1       -0.2451
      6 C         141.9107  139.1019  161.7009 C.2     1  UNL1        0.1616
      7 N         141.1772  139.0772  163.0092 N.2     1  UNL1       -0.2183
      8 H         145.3428  138.3894  161.2098 H       1  UNL1        0.2885
      9 H         144.2318  138.8227  159.9909 H       1  UNL1        0.2885
     10 C         140.9695  138.8332  164.9908 C.ar    1  UNL1        0.0437
     11 C         139.7433  138.0020  164.7555 C.ar    1  UNL1        0.0017
     12 C         138.5584  138.1392  165.6649 C.ar    1  UNL1       -0.0001
     13 C         138.5997  139.1076  166.8097 C.ar    1  UNL1        0.0000
     14 C         139.8260  139.9388  167.0450 C.ar    1  UNL1        0.0014
     15 C         141.0109  139.8016  166.1356 C.ar    1  UNL1        0.0017
     16 C         139.8673  140.9072  168.1898 C.ar    1  UNL1        0.0192
     17 C         140.4892  142.2597  168.0059 C.ar    1  UNL1        0.0031
     18 C         140.5305  143.2281  169.1507 C.ar    1  UNL1        0.0207
     19 C         139.9500  142.8440  170.4793 C.ar    1  UNL1        0.0989
     20 N         139.3281  141.4915  170.6632 N.ar    1  UNL1       -0.2423
     21 C         139.2868  140.5231  169.5184 C.ar    1  UNL1        0.0988
     22 C         141.3177  139.4342  160.3638 C.ar    1  UNL1        0.0247
     23 C         140.2330  138.5720  159.7892 C.ar    1  UNL1        0.0017
     24 C         139.6400  138.9043  158.4521 C.ar    1  UNL1        0.0001
     25 C         140.1316  140.0987  157.6895 C.ar    1  UNL1        0.0000
     26 C         141.2163  140.9609  158.2641 C.ar    1  UNL1        0.0001
     27 C         141.8093  140.6287  159.6012 C.ar    1  UNL1        0.0017
@<TRIPOS>BOND
     1     1     2    1
     2     2    10    1
     3    10    11   ar
     4    11    12   ar
     5    12    13   ar
     6    13    14   ar
     7    14    16    1
     8    16    17   ar
     9    17    18   ar
    10    18    19   ar
    11    19    20   ar
    12    20    21   ar
    13    14    15   ar
    14     2     3    1
    15     3     4    2
    16     4     5    1
    17     4     6    1
    18     6    22    1
    19    22    23   ar
    20    23    24   ar
    21    24    25   ar
    22    25    26   ar
    23    26    27   ar
    24     6     7    2
    25     7     2    1
    26    15    10   ar
    27    27    22   ar
    28    21    16   ar
    29     5     8    1
    30     5     9    1
@<TRIPOS>MOLECULE
*****
 27 30 0 0 0
SMALL
GASTEIGER

@<TRIPOS>ATOM
      1 C         137.7670  142.9407  164.6491 C.3     1  UNL1        0.0847
      2 C         138.4962  141.9760  163.7617 C.3     1  UNL1        0.2772
      3 N         138.0274  142.8791  162.6597 N.2     1  UNL1       -0.0446
      4 C         138.5330  142.3258  161.3603 C.2     1  UNL1        0.3326
      5 N         138.2985  142.9143  160.0007 N.pl3   1  UNL1       -0.2451
      6 C         139.3143  141.0807  161.6593 C.2     1  UNL1        0.1616
      7 N         139.2915  140.8645  163.1436 N.2     1  UNL1       -0.2183
      8 H         137.7695  143.7391  159.9058 H       1  UNL1        0.2885
      9 H         138.6736  142.4756  159.2031 H       1  UNL1        0.2885
     10 C         138.8126  141.2745  165.0494 C.ar    1  UNL1        0.0437
     11 C         138.2074  139.9334  165.3412 C.ar    1  UNL1        0.0017
     12 C         138.5238  139.2320  166.6288 C.ar    1  UNL1       -0.0001
     13 C         139.4453  139.8717  167.6245 C.ar    1  UNL1        0.0000
     14 C         140.0505  141.2128  167.3327 C.ar    1  UNL1        0.0014
     15 C         139.7341  141.9142  166.0451 C.ar    1  UNL1        0.0017
     16 C         140.9720  141.8525  168.3285 C.ar    1  UNL1        0.0192
     17 C         142.4275  141.4903  168.3439 C.ar    1  UNL1        0.0031
     18 C         143.3491  142.1300  169.3397 C.ar    1  UNL1        0.0207
     19 C         142.8151  143.1319  170.3200 C.ar    1  UNL1        0.0989
     20 N         141.3596  143.4941  170.3045 N.ar    1  UNL1       -0.2423
     21 C         140.4381  142.8544  169.3088 C.ar    1  UNL1        0.0988
     22 C         139.9981  140.2056  160.6513 C.ar    1  UNL1        0.0247
     23 C         141.4955  140.1220  160.6236 C.ar    1  UNL1        0.0017
     24 C         142.1794  139.2469  159.6155 C.ar    1  UNL1        0.0001
     25 C         141.3660  138.4551  158.6350 C.ar    1  UNL1        0.0000
     26 C         139.8686  138.5386  158.6626 C.ar    1  UNL1        0.0001
     27 C         139.1846  139.4138  159.6707 C.ar    1  UNL1        0.0017
@<TRIPOS>BOND
     1     1     2    1
     2     2    10    1
     3    10    11   ar
     4    11    12   ar
     5    12    13   ar
     6    13    14   ar
     7    14    16    1
     8    16    17   ar
     9    17    18   ar
    10    18    19   ar
    11    19    20   ar
    12    20    21   ar
    13    14    15   ar
    14     2     3    1
    15     3     4    2
    16     4     5    1
    17     4     6    1
    18     6    22    1
    19    22    23   ar
    20    23    24   ar
    21    24    25   ar
    22    25    26   ar
    23    26    27   ar
    24     6     7    2
    25     7     2    1
    26    15    10   ar
    27    27    22   ar
    28    21    16   ar
    29     5     8    1
    30     5     9    1
@<TRIPOS>MOLECULE
*****
 27 30 0 0 0
SMALL
GASTEIGER

@<TRIPOS>ATOM
      1 C         142.9555  145.2726  163.6704 C.3     1  UNL1        0.0847
      2 C         142.7559  143.8637  163.1958 C.3     1  UNL1        0.2772
      3 N         144.0030  144.1211  162.4031 N.2     1  UNL1       -0.0446
      4 C         144.3221  142.8790  161.6249 C.2     1  UNL1        0.3326
      5 N         145.4867  142.6943  160.6978 N.pl3   1  UNL1       -0.2451
      6 C         143.2723  141.8540  161.9368 C.2     1  UNL1        0.1616
      7 N         142.3042  142.4627  162.9077 N.2     1  UNL1       -0.2183
      8 H         146.1256  143.4300  160.5573 H       1  UNL1        0.2885
      9 H         145.6121  141.8373  160.2297 H       1  UNL1        0.2885
     10 C         141.5504  143.9010  164.0878 C.ar    1  UNL1        0.0437
     11 C         140.4058  144.8147  163.7641 C.ar    1  UNL1        0.0017
     12 C         139.2004  144.8518  164.6560 C.ar    1  UNL1       -0.0001
     13 C         139.1397  143.9753  165.8718 C.ar    1  UNL1        0.0000
     14 C         140.2844  143.0616  166.1955 C.ar    1  UNL1        0.0014
     15 C         141.4897  143.0244  165.3035 C.ar    1  UNL1        0.0017
     16 C         140.2237  142.1851  167.4113 C.ar    1  UNL1        0.0192
     17 C         140.5760  142.7446  168.7576 C.ar    1  UNL1        0.0031
     18 C         140.5153  141.8680  169.9734 C.ar    1  UNL1        0.0207
     19 C         140.1023  140.4320  169.8427 C.ar    1  UNL1        0.0989
     20 N         139.7499  139.8725  168.4964 N.ar    1  UNL1       -0.2423
     21 C         139.8106  140.7490  167.2806 C.ar    1  UNL1        0.0988
     22 C         143.2026  140.4645  161.3762 C.ar    1  UNL1        0.0247
     23 C         143.9820  139.3562  162.0197 C.ar    1  UNL1        0.0017
     24 C         143.9123  137.9667  161.4592 C.ar    1  UNL1        0.0001
     25 C         143.0633  137.6854  160.2550 C.ar    1  UNL1        0.0000
     26 C         142.2839  138.7937  159.6114 C.ar    1  UNL1        0.0001
     27 C         142.3535  140.1832  160.1720 C.ar    1  UNL1        0.0017
@<TRIPOS>BOND
     1     1     2    1
     2     2    10    1
     3    10    11   ar
     4    11    12   ar
     5    12    13   ar
     6    13    14   ar
     7    14    16    1
     8    16    17   ar
     9    17    18   ar
    10    18    19   ar
    11    19    20   ar
    12    20    21   ar
    13    14    15   ar
    14     2     3    1
    15     3     4    2
    16     4     5    1
    17     4     6    1
    18     6    22    1
    19    22    23   ar
    20    23    24   ar
    21    24    25   ar
    22    25    26   ar
    23    26    27   ar
    24     6     7    2
    25     7     2    1
    26    15    10   ar
    27    27    22   ar
    28    21    16   ar
    29     5     8    1
    30     5     9    1
@<TRIPOS>MOLECULE
*****
 27 30 0 0 0
SMALL
GASTEIGER

@<TRIPOS>ATOM
      1 C         139.5182  137.6590  164.8008 C.3     1  UNL1        0.0847
      2 C         139.7420  139.0852  164.3937 C.3     1  UNL1        0.2772
      3 N         138.5868  138.8378  163.4695 N.2     1  UNL1       -0.0446
      4 C         138.3284  140.1006  162.7022 C.2     1  UNL1        0.3326
      5 N         137.2617  140.3004  161.6667 N.pl3   1  UNL1       -0.2451
      6 C         139.3239  141.1284  163.1522 C.2     1  UNL1        0.1616
      7 N         140.1976  140.5008  164.1977 N.2     1  UNL1       -0.2183
      8 H         136.6527  139.5614  161.4384 H       1  UNL1        0.2885
      9 H         137.1706  141.1707  161.2155 H       1  UNL1        0.2885
     10 C         140.8505  139.0345  165.4031 C.ar    1  UNL1        0.0437
     11 C         142.0548  138.1761  165.1520 C.ar    1  UNL1        0.0017
     12 C         143.1632  138.1254  166.1614 C.ar    1  UNL1       -0.0001
     13 C         143.0674  138.9330  167.4218 C.ar    1  UNL1        0.0000
     14 C         141.8631  139.7913  167.6728 C.ar    1  UNL1        0.0014
     15 C         140.7547  139.8420  166.6635 C.ar    1  UNL1        0.0017
     16 C         141.7673  140.5989  168.9332 C.ar    1  UNL1        0.0192
     17 C         142.4394  141.9371  169.0195 C.ar    1  UNL1        0.0031
     18 C         142.3435  142.7447  170.2799 C.ar    1  UNL1        0.0207
     19 C         141.5757  142.2141  171.4541 C.ar    1  UNL1        0.0989
     20 N         140.9037  140.8759  171.3678 N.ar    1  UNL1       -0.2423
     21 C         140.9995  140.0683  170.1074 C.ar    1  UNL1        0.0988
     22 C         139.4276  142.5364  162.6458 C.ar    1  UNL1        0.0247
     23 C         139.0514  143.6835  163.5362 C.ar    1  UNL1        0.0017
     24 C         139.1551  145.0915  163.0298 C.ar    1  UNL1        0.0001
     25 C         139.6349  145.3527  161.6328 C.ar    1  UNL1        0.0000
     26 C         140.0111  144.2058  160.7423 C.ar    1  UNL1        0.0001
     27 C         139.9075  142.7976  161.2488 C.ar    1  UNL1        0.0017
@<TRIPOS>BOND
     1     1     2    1
     2     2    10    1
     3    10    11   ar
     4    11    12   ar
     5    12    13   ar
     6    13    14   ar
     7    14    16    1
     8    16    17   ar
     9    17    18   ar
    10    18    19   ar
    11    19    20   ar
    12    20    21   ar
    13    14    15   ar
    14     2     3    1
    15     3     4    2
    16     4     5    1
    17     4     6    1
    18     6    22    1
    19    22    23   ar
    20    23    24   ar
    21    24    25   ar
    22    25    26   ar
    23    26    27   ar
    24     6     7    2
    25     7     2    1
    26    15    10   ar
    27    27    22   ar
    28    21    16   ar
    29     5     8    1
    30     5     9    1
@<TRIPOS>MOLECULE
*****
 27 30 0 0 0
SMALL
GASTEIGER

@<TRIPOS>ATOM
      1 C         139.2482  137.4958  163.4621 C.3     1  UNL1        0.0847
      2 C         139.5987  138.4942  164.5253 C.3     1  UNL1        0.2772
      3 N         138.4619  137.8621  165.2724 N.2     1  UNL1       -0.0446
      4 C         138.3322  138.5583  166.5947 C.2     1  UNL1        0.3326
      5 N         137.3231  138.2468  167.6599 N.pl3   1  UNL1       -0.2451
      6 C         139.3888  139.6207  166.6649 C.2     1  UNL1        0.1616
      7 N         140.1716  139.5810  165.3859 N.2     1  UNL1       -0.2183
      8 H         136.6663  137.5268  167.5203 H       1  UNL1        0.2885
      9 H         137.3175  138.7624  168.4986 H       1  UNL1        0.2885
     10 C         140.6623  138.9176  163.5559 C.ar    1  UNL1        0.0437
     11 C         141.1392  137.9631  162.5018 C.ar    1  UNL1        0.0017
     12 C         142.2027  138.3865  161.5324 C.ar    1  UNL1       -0.0001
     13 C         142.7893  139.7644  161.6173 C.ar    1  UNL1        0.0000
     14 C         142.3124  140.7190  162.6715 C.ar    1  UNL1        0.0014
     15 C         141.2489  140.2955  163.6408 C.ar    1  UNL1        0.0017
     16 C         142.8989  142.0969  162.7564 C.ar    1  UNL1        0.0192
     17 C         142.4674  143.0297  163.8489 C.ar    1  UNL1        0.0031
     18 C         143.0540  144.4077  163.9338 C.ar    1  UNL1        0.0207
     19 C         144.0720  144.8528  162.9262 C.ar    1  UNL1        0.0989
     20 N         144.5035  143.9200  161.8336 N.ar    1  UNL1       -0.2423
     21 C         143.9170  142.5420  161.7488 C.ar    1  UNL1        0.0988
     22 C         139.6218  140.5580  167.8124 C.ar    1  UNL1        0.0247
     23 C         140.2520  141.8976  167.5707 C.ar    1  UNL1        0.0017
     24 C         140.4850  142.8350  168.7182 C.ar    1  UNL1        0.0001
     25 C         140.0877  142.4329  170.1077 C.ar    1  UNL1        0.0000
     26 C         139.4576  141.0934  170.3495 C.ar    1  UNL1        0.0001
     27 C         139.2246  140.1559  169.2019 C.ar    1  UNL1        0.0017
@<TRIPOS>BOND
     1     1     2    1
     2     2    10    1
     3    10    11   ar
     4    11    12   ar
     5    12    13   ar
     6    13    14   ar
     7    14    16    1
     8    16    17   ar
     9    17    18   ar
    10    18    19   ar
    11    19    20   ar
    12    20    21   ar
    13    14    15   ar
    14     2     3    1
    15     3     4    2
    16     4     5    1
    17     4     6    1
    18     6    22    1
    19    22    23   ar
    20    23    24   ar
    21    24    25   ar
    22    25    26   ar
    23    26    27   ar
    24     6     7    2
    25     7     2    1
    26    15    10   ar
    27    27    22   ar
    28    21    16   ar
    29     5     8    1
    30     5     9    1
