@<TRIPOS>MOLECULE
*****
 39 43 0 0 0
SMALL
GASTEIGER

@<TRIPOS>ATOM
      1 C         143.6580  140.1481  160.0585 C.3     1  UNL1        0.0666
      2 S         144.0343  139.1511  161.1141 S.3     1  UNL1       -0.0756
      3 C         144.9767  140.7463  163.8005 C.3     1  UNL1        0.1340
      4 N         143.7555  139.8854  163.6692 N.ar    1  UNL1       -0.2884
      5 C         143.3223  139.1522  162.4344 C.ar    1  UNL1        0.1932
      6 N         142.0520  138.4201  162.7516 N.ar    1  UNL1       -0.1221
      7 N         141.7002  138.7009  164.1825 N.ar    1  UNL1       -0.1282
      8 C         142.7529  139.6065  164.7496 C.ar    1  UNL1        0.1668
      9 C         142.7957  140.1396  166.1511 C.ar    1  UNL1        0.0359
     10 C         142.9841  141.6085  166.3893 C.ar    1  UNL1        0.0027
     11 C         143.0268  142.1416  167.7908 C.ar    1  UNL1       -0.0037
     12 C         142.8811  141.2056  168.9539 C.ar    1  UNL1       -0.0131
     13 C         142.6927  139.7367  168.7156 C.ar    1  UNL1       -0.0037
     14 C         142.6500  139.2037  167.3141 C.ar    1  UNL1        0.0027
     15 C         142.9239  141.7387  170.3553 C.3     1  UNL1        0.1111
     16 C         142.6502  143.1906  170.6142 C.2     1  UNL1        0.2238
     17 N         143.7361  144.0740  171.1533 N.am    1  UNL1       -0.3285
     18 O         141.2908  143.7593  170.3339 O.2     1  UNL1       -0.2750
     19 H         144.6283  143.7008  171.3373 H       1  UNL1        0.1450
     20 H         143.5565  145.0269  171.3231 H       1  UNL1        0.1450
     21 C         142.8005  141.3270  160.4117 C.3     1  UNL1        0.0294
     22 C         143.3640  142.4427  161.2410 C.3     1  UNL1        0.0730
     23 N         142.4585  143.2582  162.1157 N.3     1  UNL1       -0.2726
     24 C         142.3982  144.7561  162.1688 C.3     1  UNL1        0.0721
     25 C         141.3568  145.1425  163.1768 C.3     1  UNL1        0.0190
     26 C         140.7734  143.8836  163.7467 C.3     1  UNL1        0.0201
     27 C         139.8119  144.5630  164.6761 C.3     1  UNL1        0.0061
     28 C         139.8722  143.0652  164.6230 C.3     1  UNL1        0.0237
     29 C         141.4543  142.7190  163.0909 C.3     1  UNL1        0.0724
     30 C         139.3867  141.7279  165.0983 C.ar    1  UNL1       -0.0225
     31 C         139.6093  141.3119  166.5222 C.ar    1  UNL1       -0.0043
     32 C         139.1238  139.9746  166.9974 C.ar    1  UNL1        0.0035
     33 C         138.4157  139.0533  166.0488 C.ar    1  UNL1        0.0714
     34 C         138.1931  139.4693  164.6250 C.ar    1  UNL1        0.0035
     35 C         138.6786  140.8066  164.1497 C.ar    1  UNL1       -0.0043
     36 C         137.9301  137.7160  166.5241 C.3     1  UNL1        0.4186
     37 F         137.4446  136.3786  166.9994 F       1  UNL1       -0.1659
     38 F         137.0579  138.3934  167.5392 F       1  UNL1       -0.1659
     39 F         138.8023  137.0386  165.5091 F       1  UNL1       -0.1659
@<TRIPOS>BOND
     1     3     4    1
     2     4     5   ar
     3     5     2    1
     4     2     1    1
     5     1    21    1
     6    21    22    1
     7    22    23    1
     8    23    24    1
     9    24    25    1
    10    26    25    1
    11    26    27    1
    12    27    28    1
    13    28    30    1
    14    30    31   ar
    15    31    32   ar
    16    32    33   ar
    17    33    36    1
    18    36    37    1
    19    36    38    1
    20    36    39    1
    21    33    34   ar
    22    34    35   ar
    23    26    29    1
    24     5     6   ar
    25     6     7   ar
    26     7     8   ar
    27     8     9    1
    28     9    10   ar
    29    10    11   ar
    30    11    12   ar
    31    12    15    1
    32    15    16    1
    33    16    17   am
    34    16    18    2
    35    12    13   ar
    36    13    14   ar
    37     8     4   ar
    38    14     9   ar
    39    29    23    1
    40    28    26    1
    41    35    30   ar
    42    17    19    1
    43    17    20    1
@<TRIPOS>MOLECULE
*****
 39 43 0 0 0
SMALL
GASTEIGER

@<TRIPOS>ATOM
      1 C         143.0925  140.3848  160.0114 C.3     1  UNL1        0.0666
      2 S         143.4049  139.4508  161.1427 S.3     1  UNL1       -0.0756
      3 C         141.6437  139.1656  163.8752 C.3     1  UNL1        0.1340
      4 N         142.9620  139.8692  163.7454 N.ar    1  UNL1       -0.2884
      5 C         143.7716  140.0003  162.4894 C.ar    1  UNL1        0.1932
      6 N         145.0122  140.7775  162.8165 N.ar    1  UNL1       -0.1221
      7 N         144.9694  141.1267  164.2747 N.ar    1  UNL1       -0.1282
      8 C         143.7023  140.5653  164.8488 C.ar    1  UNL1        0.1668
      9 C         143.2543  140.6800  166.2758 C.ar    1  UNL1        0.0359
     10 C         143.1176  142.0312  166.9127 C.ar    1  UNL1        0.0027
     11 C         142.6696  142.1458  168.3396 C.ar    1  UNL1       -0.0037
     12 C         142.3582  140.9092  169.1296 C.ar    1  UNL1       -0.0131
     13 C         142.4948  139.5581  168.4926 C.ar    1  UNL1       -0.0037
     14 C         142.9429  139.4435  167.0657 C.ar    1  UNL1        0.0027
     15 C         141.9101  141.0239  170.5565 C.3     1  UNL1        0.1111
     16 C         140.4524  140.9229  170.8953 C.2     1  UNL1        0.2238
     17 N         139.8527  139.5915  171.2386 N.am    1  UNL1       -0.3285
     18 O         139.5943  142.1531  170.8908 O.2     1  UNL1       -0.2750
     19 H         140.4159  138.7840  171.2416 H       1  UNL1        0.1450
     20 H         138.8959  139.5252  171.4610 H       1  UNL1        0.1450
     21 C         142.0423  141.4425  160.1803 C.3     1  UNL1        0.0294
     22 C         142.4425  142.8531  160.4969 C.3     1  UNL1        0.0730
     23 N         141.6940  143.6288  161.5399 N.3     1  UNL1       -0.2726
     24 C         141.6386  145.1233  161.6566 C.3     1  UNL1        0.0721
     25 C         140.7799  145.4644  162.8382 C.3     1  UNL1        0.0190
     26 C         140.3046  144.1808  163.4519 C.3     1  UNL1        0.0201
     27 C         139.5106  144.8181  164.5533 C.3     1  UNL1        0.0061
     28 C         139.5660  143.3237  164.4367 C.3     1  UNL1        0.0237
     29 C         140.8696  143.0463  162.6495 C.3     1  UNL1        0.0724
     30 C         139.1716  141.9661  164.9379 C.ar    1  UNL1       -0.0225
     31 C         138.2955  141.0826  164.1000 C.ar    1  UNL1       -0.0043
     32 C         137.9011  139.7249  164.6012 C.ar    1  UNL1        0.0035
     33 C         138.3828  139.2508  165.9403 C.ar    1  UNL1        0.0714
     34 C         139.2588  140.1343  166.7782 C.ar    1  UNL1        0.0035
     35 C         139.6532  141.4919  166.2770 C.ar    1  UNL1       -0.0043
     36 C         137.9883  137.8932  166.4415 C.3     1  UNL1        0.4186
     37 F         137.5939  136.5355  166.9428 F       1  UNL1       -0.1659
     38 F         138.5008  137.2763  165.1739 F       1  UNL1       -0.1659
     39 F         137.4759  138.5100  167.7092 F       1  UNL1       -0.1659
@<TRIPOS>BOND
     1     3     4    1
     2     4     5   ar
     3     5     2    1
     4     2     1    1
     5     1    21    1
     6    21    22    1
     7    22    23    1
     8    23    24    1
     9    24    25    1
    10    26    25    1
    11    26    27    1
    12    27    28    1
    13    28    30    1
    14    30    31   ar
    15    31    32   ar
    16    32    33   ar
    17    33    36    1
    18    36    37    1
    19    36    38    1
    20    36    39    1
    21    33    34   ar
    22    34    35   ar
    23    26    29    1
    24     5     6   ar
    25     6     7   ar
    26     7     8   ar
    27     8     9    1
    28     9    10   ar
    29    10    11   ar
    30    11    12   ar
    31    12    15    1
    32    15    16    1
    33    16    17   am
    34    16    18    2
    35    12    13   ar
    36    13    14   ar
    37     8     4   ar
    38    14     9   ar
    39    29    23    1
    40    28    26    1
    41    35    30   ar
    42    17    19    1
    43    17    20    1
@<TRIPOS>MOLECULE
*****
 39 43 0 0 0
SMALL
GASTEIGER

@<TRIPOS>ATOM
      1 C         143.6827  142.9582  159.7258 C.3     1  UNL1        0.0666
      2 S         144.5433  142.4442  160.8416 S.3     1  UNL1       -0.0756
      3 C         144.0325  140.1657  163.1214 C.3     1  UNL1        0.1340
      4 N         143.9171  141.6486  163.3155 N.ar    1  UNL1       -0.2884
      5 C         144.1519  142.6959  162.2676 C.ar    1  UNL1        0.1932
      6 N         143.9265  144.0392  162.8960 N.ar    1  UNL1       -0.1221
      7 N         143.5525  143.8221  164.3323 N.ar    1  UNL1       -0.1282
      8 C         143.5466  142.3446  164.5916 C.ar    1  UNL1        0.1668
      9 C         143.2265  141.6799  165.8977 C.ar    1  UNL1        0.0359
     10 C         143.1845  142.4886  167.1603 C.ar    1  UNL1        0.0027
     11 C         142.8644  141.8239  168.4664 C.ar    1  UNL1       -0.0037
     12 C         142.5863  140.3505  168.5096 C.ar    1  UNL1       -0.0131
     13 C         142.6283  139.5418  167.2470 C.ar    1  UNL1       -0.0037
     14 C         142.9484  140.2066  165.9410 C.ar    1  UNL1        0.0027
     15 C         142.2662  139.6858  169.8157 C.3     1  UNL1        0.1111
     16 C         141.2134  140.2647  170.7137 C.2     1  UNL1        0.2238
     17 N         139.8020  139.7630  170.6354 N.am    1  UNL1       -0.3285
     18 O         141.5720  141.3454  171.6901 O.2     1  UNL1       -0.2750
     19 H         139.5666  139.0536  169.9945 H       1  UNL1        0.1450
     20 H         139.1111  140.1430  171.2248 H       1  UNL1        0.1450
     21 C         142.4092  142.2485  159.3728 C.3     1  UNL1        0.0294
     22 C         141.0895  142.9341  159.5681 C.3     1  UNL1        0.0730
     23 N         140.8187  143.6936  160.8329 N.3     1  UNL1       -0.2726
     24 C         141.0139  145.1670  161.0356 C.3     1  UNL1        0.0721
     25 C         140.6211  145.4970  162.4451 C.3     1  UNL1        0.0190
     26 C         140.1831  144.2276  163.1136 C.3     1  UNL1        0.0201
     27 C         139.8681  144.8502  164.4414 C.3     1  UNL1        0.0061
     28 C         139.6729  143.3768  164.2387 C.3     1  UNL1        0.0237
     29 C         140.3053  143.1130  162.1172 C.3     1  UNL1        0.0724
     30 C         139.2656  142.0350  164.7713 C.ar    1  UNL1       -0.0225
     31 C         139.6394  141.6377  166.1686 C.ar    1  UNL1       -0.0043
     32 C         139.2322  140.2959  166.7012 C.ar    1  UNL1        0.0035
     33 C         138.4511  139.3514  165.8364 C.ar    1  UNL1        0.0714
     34 C         138.0774  139.7486  164.4391 C.ar    1  UNL1        0.0035
     35 C         138.4846  141.0905  163.9065 C.ar    1  UNL1       -0.0043
     36 C         138.0439  138.0095  166.3690 C.3     1  UNL1        0.4186
     37 F         137.6366  136.6676  166.9015 F       1  UNL1       -0.1659
     38 F         137.2914  138.6791  167.4805 F       1  UNL1       -0.1659
     39 F         138.7964  137.3400  165.2575 F       1  UNL1       -0.1659
@<TRIPOS>BOND
     1     3     4    1
     2     4     5   ar
     3     5     2    1
     4     2     1    1
     5     1    21    1
     6    21    22    1
     7    22    23    1
     8    23    24    1
     9    24    25    1
    10    26    25    1
    11    26    27    1
    12    27    28    1
    13    28    30    1
    14    30    31   ar
    15    31    32   ar
    16    32    33   ar
    17    33    36    1
    18    36    37    1
    19    36    38    1
    20    36    39    1
    21    33    34   ar
    22    34    35   ar
    23    26    29    1
    24     5     6   ar
    25     6     7   ar
    26     7     8   ar
    27     8     9    1
    28     9    10   ar
    29    10    11   ar
    30    11    12   ar
    31    12    15    1
    32    15    16    1
    33    16    17   am
    34    16    18    2
    35    12    13   ar
    36    13    14   ar
    37     8     4   ar
    38    14     9   ar
    39    29    23    1
    40    28    26    1
    41    35    30   ar
    42    17    19    1
    43    17    20    1
@<TRIPOS>MOLECULE
*****
 39 43 0 0 0
SMALL
GASTEIGER

@<TRIPOS>ATOM
      1 C         140.4801  145.3630  159.9931 C.3     1  UNL1        0.0666
      2 S         139.7346  145.7562  161.2338 S.3     1  UNL1       -0.0756
      3 C         141.8829  145.5060  163.6775 C.3     1  UNL1        0.1340
      4 N         140.6354  144.6895  163.5132 N.ar    1  UNL1       -0.2884
      5 C         139.6479  144.8045  162.3900 C.ar    1  UNL1        0.1932
      6 N         138.5585  143.8007  162.6259 N.ar    1  UNL1       -0.1221
      7 N         138.8727  143.0653  163.8949 N.ar    1  UNL1       -0.1282
      8 C         140.1563  143.6145  164.4434 C.ar    1  UNL1        0.1668
      9 C         140.8406  143.1674  165.7011 C.ar    1  UNL1        0.0359
     10 C         142.2599  142.6846  165.6517 C.ar    1  UNL1        0.0027
     11 C         142.9443  142.2374  166.9094 C.ar    1  UNL1       -0.0037
     12 C         142.2091  142.2732  168.2165 C.ar    1  UNL1       -0.0131
     13 C         140.7898  142.7560  168.2659 C.ar    1  UNL1       -0.0037
     14 C         140.1056  143.2031  167.0081 C.ar    1  UNL1        0.0027
     15 C         142.8934  141.8260  169.4742 C.3     1  UNL1        0.1111
     16 C         142.6293  142.5404  170.7664 C.2     1  UNL1        0.2238
     17 N         143.3796  143.7969  171.0957 N.am    1  UNL1       -0.3285
     18 O         141.6149  141.9985  171.7293 O.2     1  UNL1       -0.2750
     19 H         144.0454  144.1526  170.4637 H       1  UNL1        0.1450
     20 H         143.2063  144.2658  171.9438 H       1  UNL1        0.1450
     21 C         141.0128  143.9682  159.8485 C.3     1  UNL1        0.0294
     22 C         142.3990  143.6421  160.3197 C.3     1  UNL1        0.0730
     23 N         142.8172  142.2113  160.4868 N.3     1  UNL1       -0.2726
     24 C         143.7229  141.4446  159.5693 C.3     1  UNL1        0.0721
     25 C         143.8686  140.0555  160.1161 C.3     1  UNL1        0.0190
     26 C         143.0529  139.9636  161.3716 C.3     1  UNL1        0.0201
     27 C         143.3835  138.5311  161.6690 C.3     1  UNL1        0.0061
     28 C         142.4778  139.2978  162.5866 C.3     1  UNL1        0.0237
     29 C         142.4031  141.2960  161.6007 C.3     1  UNL1        0.0724
     30 C         141.6229  139.3561  163.8177 C.ar    1  UNL1       -0.0225
     31 C         140.1801  139.7521  163.7108 C.ar    1  UNL1       -0.0043
     32 C         139.3252  139.8104  164.9420 C.ar    1  UNL1        0.0035
     33 C         139.9131  139.4726  166.2800 C.ar    1  UNL1        0.0714
     34 C         141.3560  139.0765  166.3868 C.ar    1  UNL1        0.0035
     35 C         142.2109  139.0182  165.1557 C.ar    1  UNL1       -0.0043
     36 C         139.0582  139.5308  167.5111 C.3     1  UNL1        0.4186
     37 F         138.2033  139.5891  168.7423 F       1  UNL1       -0.1659
     38 F         137.8304  139.3595  166.6666 F       1  UNL1       -0.1659
     39 F         140.2860  139.7022  168.3556 F       1  UNL1       -0.1659
@<TRIPOS>BOND
     1     3     4    1
     2     4     5   ar
     3     5     2    1
     4     2     1    1
     5     1    21    1
     6    21    22    1
     7    22    23    1
     8    23    24    1
     9    24    25    1
    10    26    25    1
    11    26    27    1
    12    27    28    1
    13    28    30    1
    14    30    31   ar
    15    31    32   ar
    16    32    33   ar
    17    33    36    1
    18    36    37    1
    19    36    38    1
    20    36    39    1
    21    33    34   ar
    22    34    35   ar
    23    26    29    1
    24     5     6   ar
    25     6     7   ar
    26     7     8   ar
    27     8     9    1
    28     9    10   ar
    29    10    11   ar
    30    11    12   ar
    31    12    15    1
    32    15    16    1
    33    16    17   am
    34    16    18    2
    35    12    13   ar
    36    13    14   ar
    37     8     4   ar
    38    14     9   ar
    39    29    23    1
    40    28    26    1
    41    35    30   ar
    42    17    19    1
    43    17    20    1
@<TRIPOS>MOLECULE
*****
 39 43 0 0 0
SMALL
GASTEIGER

@<TRIPOS>ATOM
      1 C         140.5067  144.3229  159.1751 C.3     1  UNL1        0.0666
      2 S         140.4546  145.3660  160.2517 S.3     1  UNL1       -0.0756
      3 C         142.5447  143.9562  162.3238 C.3     1  UNL1        0.1340
      4 N         141.1200  144.3202  162.6200 N.ar    1  UNL1       -0.2884
      5 C         140.1593  144.9683  161.6676 C.ar    1  UNL1        0.1932
      6 N         138.8514  145.1487  162.3796 N.ar    1  UNL1       -0.1221
      7 N         139.0038  144.6123  163.7720 N.ar    1  UNL1       -0.1282
      8 C         140.4059  144.1002  163.9207 C.ar    1  UNL1        0.1668
      9 C         140.9911  143.4775  165.1535 C.ar    1  UNL1        0.0359
     10 C         142.4399  143.0902  165.1827 C.ar    1  UNL1        0.0027
     11 C         143.0251  142.4675  166.4155 C.ar    1  UNL1       -0.0037
     12 C         142.1613  142.2320  167.6191 C.ar    1  UNL1       -0.0131
     13 C         140.7124  142.6193  167.5899 C.ar    1  UNL1       -0.0037
     14 C         140.1273  143.2420  166.3570 C.ar    1  UNL1        0.0027
     15 C         142.7464  141.6093  168.8519 C.3     1  UNL1        0.1111
     16 C         143.2664  142.4797  169.9573 C.2     1  UNL1        0.2238
     17 N         144.7126  142.8770  169.9819 N.am    1  UNL1       -0.3285
     18 O         142.3402  142.9528  171.0382 O.2     1  UNL1       -0.2750
     19 H         145.3206  142.5665  169.2725 H       1  UNL1        0.1450
     20 H         145.0539  143.4483  170.7075 H       1  UNL1        0.1450
     21 C         139.5353  143.1800  159.1904 C.3     1  UNL1        0.0294
     22 C         139.8787  141.9134  159.9169 C.3     1  UNL1        0.0730
     23 N         139.1936  141.5808  161.2093 N.3     1  UNL1       -0.2726
     24 C         137.7525  141.8393  161.5352 C.3     1  UNL1        0.0721
     25 C         137.4977  141.3495  162.9299 C.3     1  UNL1        0.0190
     26 C         138.7814  140.7883  163.4659 C.3     1  UNL1        0.0201
     27 C         138.2343  140.3988  164.8072 C.3     1  UNL1        0.0061
     28 C         139.6755  140.1403  164.4812 C.3     1  UNL1        0.0237
     29 C         139.8295  140.9313  162.4025 C.3     1  UNL1        0.0724
     30 C         141.0237  139.6170  164.8791 C.ar    1  UNL1       -0.0225
     31 C         142.1157  139.5033  163.8570 C.ar    1  UNL1       -0.0043
     32 C         143.4639  138.9800  164.2550 C.ar    1  UNL1        0.0035
     33 C         143.7201  138.5703  165.6750 C.ar    1  UNL1        0.0714
     34 C         142.6281  138.6839  166.6971 C.ar    1  UNL1        0.0035
     35 C         141.2799  139.2073  166.2992 C.ar    1  UNL1       -0.0043
     36 C         145.0684  138.0470  166.0729 C.3     1  UNL1        0.4186
     37 F         146.4167  137.5236  166.4709 F       1  UNL1       -0.1659
     38 F         145.7126  138.9173  165.0350 F       1  UNL1       -0.1659
     39 F         144.4241  137.1766  167.1109 F       1  UNL1       -0.1659
@<TRIPOS>BOND
     1     3     4    1
     2     4     5   ar
     3     5     2    1
     4     2     1    1
     5     1    21    1
     6    21    22    1
     7    22    23    1
     8    23    24    1
     9    24    25    1
    10    26    25    1
    11    26    27    1
    12    27    28    1
    13    28    30    1
    14    30    31   ar
    15    31    32   ar
    16    32    33   ar
    17    33    36    1
    18    36    37    1
    19    36    38    1
    20    36    39    1
    21    33    34   ar
    22    34    35   ar
    23    26    29    1
    24     5     6   ar
    25     6     7   ar
    26     7     8   ar
    27     8     9    1
    28     9    10   ar
    29    10    11   ar
    30    11    12   ar
    31    12    15    1
    32    15    16    1
    33    16    17   am
    34    16    18    2
    35    12    13   ar
    36    13    14   ar
    37     8     4   ar
    38    14     9   ar
    39    29    23    1
    40    28    26    1
    41    35    30   ar
    42    17    19    1
    43    17    20    1
@<TRIPOS>MOLECULE
*****
 39 43 0 0 0
SMALL
GASTEIGER

@<TRIPOS>ATOM
      1 C         141.1705  144.5400  159.3847 C.3     1  UNL1        0.0666
      2 S         140.8899  145.1296  160.7351 S.3     1  UNL1       -0.0756
      3 C         139.5725  143.8904  163.4514 C.3     1  UNL1        0.1340
      4 N         141.0375  144.0727  163.1858 N.ar    1  UNL1       -0.2884
      5 C         141.6430  144.6423  161.9373 C.ar    1  UNL1        0.1932
      6 N         143.1340  144.6391  162.1020 N.ar    1  UNL1       -0.1221
      7 N         143.4499  144.0675  163.4523 N.ar    1  UNL1       -0.1282
      8 C         142.1542  143.7175  164.1223 C.ar    1  UNL1        0.1668
      9 C         142.0020  143.1175  165.4886 C.ar    1  UNL1        0.0359
     10 C         140.6405  142.9932  166.1057 C.ar    1  UNL1        0.0027
     11 C         140.4883  142.3933  167.4721 C.ar    1  UNL1       -0.0037
     12 C         141.6977  141.9176  168.2213 C.ar    1  UNL1       -0.0131
     13 C         143.0592  142.0419  167.6041 C.ar    1  UNL1       -0.0037
     14 C         143.2113  142.6419  166.2378 C.ar    1  UNL1        0.0027
     15 C         141.5455  141.3177  169.5876 C.3     1  UNL1        0.1111
     16 C         141.6562  142.1870  170.8050 C.2     1  UNL1        0.2238
     17 N         142.8475  143.0810  170.9824 N.am    1  UNL1       -0.3285
     18 O         140.5756  142.1623  171.8450 O.2     1  UNL1       -0.2750
     19 H         143.5567  143.0973  170.2999 H       1  UNL1        0.1450
     20 H         142.9201  143.6516  171.7815 H       1  UNL1        0.1450
     21 C         140.4607  143.2926  158.9487 C.3     1  UNL1        0.0294
     22 C         141.2138  141.9998  158.8408 C.3     1  UNL1        0.0730
     23 N         142.2861  141.6712  159.8368 N.3     1  UNL1       -0.2726
     24 C         143.7614  141.8540  159.6365 C.3     1  UNL1        0.0721
     25 C         144.4585  141.3978  160.8839 C.3     1  UNL1        0.0190
     26 C         143.4141  140.9330  161.8551 C.3     1  UNL1        0.0201
     27 C         144.3714  140.5576  162.9471 C.3     1  UNL1        0.0061
     28 C         142.8961  140.3747  163.1474 C.3     1  UNL1        0.0237
     29 C         142.0715  141.1020  161.2079 C.3     1  UNL1        0.0724
     30 C         141.7453  139.9469  164.0091 C.ar    1  UNL1       -0.0225
     31 C         140.3367  140.1719  163.5452 C.ar    1  UNL1       -0.0043
     32 C         139.1859  139.7440  164.4069 C.ar    1  UNL1        0.0035
     33 C         139.4437  139.0911  165.7325 C.ar    1  UNL1        0.0714
     34 C         140.8523  138.8661  166.1964 C.ar    1  UNL1        0.0035
     35 C         142.0031  139.2940  165.3347 C.ar    1  UNL1       -0.0043
     36 C         138.2929  138.6632  166.5942 C.3     1  UNL1        0.4186
     37 F         137.1420  138.2353  167.4559 F       1  UNL1       -0.1659
     38 F         138.5061  139.8598  167.4732 F       1  UNL1       -0.1659
     39 F         138.0796  137.4666  165.7152 F       1  UNL1       -0.1659
@<TRIPOS>BOND
     1     3     4    1
     2     4     5   ar
     3     5     2    1
     4     2     1    1
     5     1    21    1
     6    21    22    1
     7    22    23    1
     8    23    24    1
     9    24    25    1
    10    26    25    1
    11    26    27    1
    12    27    28    1
    13    28    30    1
    14    30    31   ar
    15    31    32   ar
    16    32    33   ar
    17    33    36    1
    18    36    37    1
    19    36    38    1
    20    36    39    1
    21    33    34   ar
    22    34    35   ar
    23    26    29    1
    24     5     6   ar
    25     6     7   ar
    26     7     8   ar
    27     8     9    1
    28     9    10   ar
    29    10    11   ar
    30    11    12   ar
    31    12    15    1
    32    15    16    1
    33    16    17   am
    34    16    18    2
    35    12    13   ar
    36    13    14   ar
    37     8     4   ar
    38    14     9   ar
    39    29    23    1
    40    28    26    1
    41    35    30   ar
    42    17    19    1
    43    17    20    1
@<TRIPOS>MOLECULE
*****
 39 43 0 0 0
SMALL
GASTEIGER

@<TRIPOS>ATOM
      1 C         140.5699  143.5115  159.7381 C.3     1  UNL1        0.0666
      2 S         141.5902  143.6368  160.8304 S.3     1  UNL1       -0.0756
      3 C         142.6225  144.6572  163.7532 C.3     1  UNL1        0.1340
      4 N         141.8566  143.3969  163.4793 N.ar    1  UNL1       -0.2884
      5 C         141.3821  142.9278  162.1358 C.ar    1  UNL1        0.1932
      6 N         140.6630  141.6254  162.3269 N.ar    1  UNL1       -0.1221
      7 N         140.6930  141.2895  163.7885 N.ar    1  UNL1       -0.1282
      8 C         141.4307  142.3843  164.5008 C.ar    1  UNL1        0.1668
      9 C         141.6959  142.4542  165.9755 C.ar    1  UNL1        0.0359
     10 C         143.1016  142.3575  166.4902 C.ar    1  UNL1        0.0027
     11 C         143.3668  142.4274  167.9649 C.ar    1  UNL1       -0.0037
     12 C         142.2262  142.5941  168.9249 C.ar    1  UNL1       -0.0131
     13 C         140.8206  142.6908  168.4102 C.ar    1  UNL1       -0.0037
     14 C         140.5555  142.6208  166.9355 C.ar    1  UNL1        0.0027
     15 C         142.4915  142.6640  170.3996 C.3     1  UNL1        0.1111
     16 C         141.7995  141.7143  171.3319 C.2     1  UNL1        0.2238
     17 N         142.3518  140.3359  171.5444 N.am    1  UNL1       -0.3285
     18 O         140.5554  142.1429  172.0519 O.2     1  UNL1       -0.2750
     19 H         143.1684  140.0546  171.0719 H       1  UNL1        0.1450
     20 H         141.8976  139.7126  172.1563 H       1  UNL1        0.1450
     21 C         140.7609  142.5016  158.6455 C.3     1  UNL1        0.0294
     22 C         142.1301  141.9634  158.3526 C.3     1  UNL1        0.0730
     23 N         142.4026  140.4943  158.4851 N.3     1  UNL1       -0.2726
     24 C         142.6070  139.5300  157.3545 C.3     1  UNL1        0.0721
     25 C         142.8493  138.1714  157.9423 C.3     1  UNL1        0.0190
     26 C         142.7947  138.2960  159.4361 C.3     1  UNL1        0.0201
     27 C         143.0600  136.8481  159.7241 C.3     1  UNL1        0.0061
     28 C         142.8556  137.8124  160.8547 C.3     1  UNL1        0.0237
     29 C         142.5186  139.7317  159.7716 C.3     1  UNL1        0.0724
     30 C         142.7728  138.0900  162.3265 C.ar    1  UNL1       -0.0225
     31 C         143.8872  138.8199  163.0159 C.ar    1  UNL1       -0.0043
     32 C         143.8044  139.0975  164.4876 C.ar    1  UNL1        0.0035
     33 C         142.6072  138.6451  165.2700 C.ar    1  UNL1        0.0714
     34 C         141.4928  137.9151  164.5805 C.ar    1  UNL1        0.0035
     35 C         141.5756  137.6375  163.1088 C.ar    1  UNL1       -0.0043
     36 C         142.5244  138.9226  166.7417 C.3     1  UNL1        0.4186
     37 F         142.4415  139.2002  168.2135 F       1  UNL1       -0.1659
     38 F         143.9552  138.5017  166.9016 F       1  UNL1       -0.1659
     39 F         141.0936  139.3435  166.5818 F       1  UNL1       -0.1659
@<TRIPOS>BOND
     1     3     4    1
     2     4     5   ar
     3     5     2    1
     4     2     1    1
     5     1    21    1
     6    21    22    1
     7    22    23    1
     8    23    24    1
     9    24    25    1
    10    26    25    1
    11    26    27    1
    12    27    28    1
    13    28    30    1
    14    30    31   ar
    15    31    32   ar
    16    32    33   ar
    17    33    36    1
    18    36    37    1
    19    36    38    1
    20    36    39    1
    21    33    34   ar
    22    34    35   ar
    23    26    29    1
    24     5     6   ar
    25     6     7   ar
    26     7     8   ar
    27     8     9    1
    28     9    10   ar
    29    10    11   ar
    30    11    12   ar
    31    12    15    1
    32    15    16    1
    33    16    17   am
    34    16    18    2
    35    12    13   ar
    36    13    14   ar
    37     8     4   ar
    38    14     9   ar
    39    29    23    1
    40    28    26    1
    41    35    30   ar
    42    17    19    1
    43    17    20    1
@<TRIPOS>MOLECULE
*****
 39 43 0 0 0
SMALL
GASTEIGER

@<TRIPOS>ATOM
      1 C         138.4077  140.1432  159.3797 C.3     1  UNL1        0.0666
      2 S         137.5570  139.9586  160.6012 S.3     1  UNL1       -0.0756
      3 C         138.9297  138.8652  163.3525 C.3     1  UNL1        0.1340
      4 N         138.4595  140.2667  163.0983 N.ar    1  UNL1       -0.2884
      5 C         137.8285  140.7693  161.8337 C.ar    1  UNL1        0.1932
      6 N         137.5168  142.2249  162.0180 N.ar    1  UNL1       -0.1221
      7 N         137.9551  142.6220  163.3965 N.ar    1  UNL1       -0.1282
      8 C         138.5377  141.4117  164.0642 C.ar    1  UNL1        0.1668
      9 C         139.0999  141.3563  165.4538 C.ar    1  UNL1        0.0359
     10 C         139.0766  140.0678  166.2214 C.ar    1  UNL1        0.0027
     11 C         139.6388  140.0123  167.6110 C.ar    1  UNL1       -0.0037
     12 C         140.2242  141.2455  168.2329 C.ar    1  UNL1       -0.0131
     13 C         140.2474  142.5340  167.4653 C.ar    1  UNL1       -0.0037
     14 C         139.6853  142.5894  166.0757 C.ar    1  UNL1        0.0027
     15 C         140.7864  141.1900  169.6225 C.3     1  UNL1        0.1111
     16 C         140.7367  139.9089  170.4010 C.2     1  UNL1        0.2238
     17 N         141.9402  139.0150  170.4518 N.am    1  UNL1       -0.3285
     18 O         139.4837  139.5215  171.1289 O.2     1  UNL1       -0.2750
     19 H         142.7627  139.2692  169.9741 H       1  UNL1        0.1450
     20 H         141.9077  138.1741  170.9627 H       1  UNL1        0.1450
     21 C         138.5705  141.5077  158.7783 C.3     1  UNL1        0.0294
     22 C         139.9299  142.1375  158.7044 C.3     1  UNL1        0.0730
     23 N         140.3328  143.1724  159.7126 N.3     1  UNL1       -0.2726
     24 C         140.1727  144.6565  159.5649 C.3     1  UNL1        0.0721
     25 C         140.7076  145.3062  160.8066 C.3     1  UNL1        0.0190
     26 C         141.1983  144.2237  161.7217 C.3     1  UNL1        0.0201
     27 C         141.6504  145.1398  162.8200 C.3     1  UNL1        0.0061
     28 C         141.8105  143.6557  162.9677 C.3     1  UNL1        0.0237
     29 C         140.9667  142.9049  161.0455 C.3     1  UNL1        0.0724
     30 C         142.2564  142.4709  163.7723 C.ar    1  UNL1       -0.0225
     31 C         142.0069  141.0820  163.2637 C.ar    1  UNL1       -0.0043
     32 C         142.4528  139.8972  164.0683 C.ar    1  UNL1        0.0035
     33 C         143.1482  140.1013  165.3816 C.ar    1  UNL1        0.0714
     34 C         143.3976  141.4902  165.8903 C.ar    1  UNL1        0.0035
     35 C         142.9517  142.6750  165.0857 C.ar    1  UNL1       -0.0043
     36 C         143.5940  138.9166  166.1862 C.3     1  UNL1        0.4186
     37 F         144.0399  137.7317  166.9909 F       1  UNL1       -0.1659
     38 F         144.2953  138.3624  164.9816 F       1  UNL1       -0.1659
     39 F         142.8928  139.4707  167.3908 F       1  UNL1       -0.1659
@<TRIPOS>BOND
     1     3     4    1
     2     4     5   ar
     3     5     2    1
     4     2     1    1
     5     1    21    1
     6    21    22    1
     7    22    23    1
     8    23    24    1
     9    24    25    1
    10    26    25    1
    11    26    27    1
    12    27    28    1
    13    28    30    1
    14    30    31   ar
    15    31    32   ar
    16    32    33   ar
    17    33    36    1
    18    36    37    1
    19    36    38    1
    20    36    39    1
    21    33    34   ar
    22    34    35   ar
    23    26    29    1
    24     5     6   ar
    25     6     7   ar
    26     7     8   ar
    27     8     9    1
    28     9    10   ar
    29    10    11   ar
    30    11    12   ar
    31    12    15    1
    32    15    16    1
    33    16    17   am
    34    16    18    2
    35    12    13   ar
    36    13    14   ar
    37     8     4   ar
    38    14     9   ar
    39    29    23    1
    40    28    26    1
    41    35    30   ar
    42    17    19    1
    43    17    20    1
@<TRIPOS>MOLECULE
*****
 39 43 0 0 0
SMALL
GASTEIGER

@<TRIPOS>ATOM
      1 C         142.0561  143.6855  158.7544 C.3     1  UNL1        0.0666
      2 S         141.4741  144.3321  159.9763 S.3     1  UNL1       -0.0756
      3 C         139.8953  143.2853  162.6336 C.3     1  UNL1        0.1340
      4 N         141.3598  143.5971  162.5438 N.ar    1  UNL1       -0.2884
      5 C         142.0855  144.0783  161.3224 C.ar    1  UNL1        0.1932
      6 N         143.5299  144.2611  161.6833 N.ar    1  UNL1       -0.1221
      7 N         143.6969  143.8929  163.1278 N.ar    1  UNL1       -0.1282
      8 C         142.3557  143.4825  163.6596 C.ar    1  UNL1        0.1668
      9 C         142.0620  143.0360  165.0612 C.ar    1  UNL1        0.0359
     10 C         143.1640  142.4925  165.9216 C.ar    1  UNL1        0.0027
     11 C         142.8703  142.0459  167.3232 C.ar    1  UNL1       -0.0037
     12 C         141.4746  142.1429  167.8642 C.ar    1  UNL1       -0.0131
     13 C         140.3726  142.6864  167.0038 C.ar    1  UNL1       -0.0037
     14 C         140.6664  143.1329  165.6022 C.ar    1  UNL1        0.0027
     15 C         141.1809  141.6964  169.2658 C.3     1  UNL1        0.1111
     16 C         141.0263  142.7112  170.3595 C.2     1  UNL1        0.2238
     17 N         139.7486  142.7818  171.1421 N.am    1  UNL1       -0.3285
     18 O         142.1494  143.6556  170.6705 O.2     1  UNL1       -0.2750
     19 H         139.0115  142.1619  170.9380 H       1  UNL1        0.1450
     20 H         139.6472  143.4479  171.8599 H       1  UNL1        0.1450
     21 C         141.2631  142.6611  157.9982 C.3     1  UNL1        0.0294
     22 C         140.8321  141.3950  158.6773 C.3     1  UNL1        0.0730
     23 N         141.8329  140.5699  159.4308 N.3     1  UNL1       -0.2726
     24 C         143.2248  140.2419  158.9781 C.3     1  UNL1        0.0721
     25 C         143.8696  139.3973  160.0368 C.3     1  UNL1        0.0190
     26 C         142.8762  139.2033  161.1438 C.3     1  UNL1        0.0201
     27 C         143.7676  138.3625  162.0089 C.3     1  UNL1        0.0061
     28 C         142.3757  138.6905  162.4616 C.3     1  UNL1        0.0237
     29 C         141.6174  139.9280  160.7693 C.3     1  UNL1        0.0724
     30 C         141.2831  138.5838  163.4838 C.ar    1  UNL1       -0.0225
     31 C         140.1361  137.6435  163.2602 C.ar    1  UNL1       -0.0043
     32 C         139.0435  137.5368  164.2823 C.ar    1  UNL1        0.0035
     33 C         139.0980  138.3705  165.5281 C.ar    1  UNL1        0.0714
     34 C         140.2451  139.3108  165.7517 C.ar    1  UNL1        0.0035
     35 C         141.3377  139.4175  164.7296 C.ar    1  UNL1       -0.0043
     36 C         138.0054  138.2638  166.5503 C.3     1  UNL1        0.4186
     37 F         136.9128  138.1571  167.5725 F       1  UNL1       -0.1659
     38 F         138.1776  139.7156  166.8859 F       1  UNL1       -0.1659
     39 F         137.8332  136.8120  166.2147 F       1  UNL1       -0.1659
@<TRIPOS>BOND
     1     3     4    1
     2     4     5   ar
     3     5     2    1
     4     2     1    1
     5     1    21    1
     6    21    22    1
     7    22    23    1
     8    23    24    1
     9    24    25    1
    10    26    25    1
    11    26    27    1
    12    27    28    1
    13    28    30    1
    14    30    31   ar
    15    31    32   ar
    16    32    33   ar
    17    33    36    1
    18    36    37    1
    19    36    38    1
    20    36    39    1
    21    33    34   ar
    22    34    35   ar
    23    26    29    1
    24     5     6   ar
    25     6     7   ar
    26     7     8   ar
    27     8     9    1
    28     9    10   ar
    29    10    11   ar
    30    11    12   ar
    31    12    15    1
    32    15    16    1
    33    16    17   am
    34    16    18    2
    35    12    13   ar
    36    13    14   ar
    37     8     4   ar
    38    14     9   ar
    39    29    23    1
    40    28    26    1
    41    35    30   ar
    42    17    19    1
    43    17    20    1
