@<TRIPOS>MOLECULE
*****
 19 20 0 0 0
SMALL
GASTEIGER

@<TRIPOS>ATOM
      1 C         140.0876  141.5007  167.2269 C.3     1  UNL1        0.0324
      2 C         139.5419  140.3547  168.0260 C.3     1  UNL1        0.0053
      3 C         139.4569  140.4554  169.5202 C.3     1  UNL1        0.0004
      4 C         139.9176  141.7023  170.2152 C.3     1  UNL1        0.0000
      5 C         140.4633  142.8484  169.4161 C.3     1  UNL1        0.0004
      6 C         140.5483  142.7476  167.9219 C.3     1  UNL1        0.0053
      7 C         139.7793  140.5355  166.1208 C.ar    1  UNL1       -0.0206
      8 C         138.6277  140.7974  165.1961 C.ar    1  UNL1       -0.0033
      9 C         138.3193  139.8322  164.0901 C.ar    1  UNL1        0.0119
     10 C         139.1626  138.6050  163.9089 C.ar    1  UNL1        0.0682
     11 CL        138.8543  137.6397  162.8028 Cl      1  UNL1       -0.0814
     12 C         140.3143  138.3430  164.8336 C.ar    1  UNL1        0.0679
     13 CL        141.1576  137.1159  164.6523 Cl      1  UNL1       -0.0814
     14 C         140.6226  139.3083  165.9395 C.ar    1  UNL1        0.0080
     15 C         139.6318  143.3842  165.4963 C.3     1  UNL1        0.0177
     16 C         140.5263  142.3116  166.0436 C.3     1  UNL1        0.0613
     17 N         141.8593  142.0499  165.4076 N.3     1  UNL1       -0.2713
     18 C         141.9780  141.9865  163.9136 C.3     1  UNL1        0.0896
     19 C         143.0736  141.8517  166.2656 C.3     1  UNL1        0.0896
@<TRIPOS>BOND
     1    15    16    1
     2    16    17    1
     3    17    18    1
     4    17    19    1
     5    16     1    1
     6     1     7    1
     7     7     8   ar
     8     8     9   ar
     9     9    10   ar
    10    10    11    1
    11    10    12   ar
    12    12    13    1
    13    12    14   ar
    14     1     2    1
    15     2     3    1
    16     3     4    1
    17     4     5    1
    18     5     6    1
    19     6     1    1
    20    14     7   ar
@<TRIPOS>MOLECULE
*****
 19 20 0 0 0
SMALL
GASTEIGER

@<TRIPOS>ATOM
      1 C         140.8049  141.4520  167.7736 C.3     1  UNL1        0.0324
      2 C         140.0129  140.4062  168.5007 C.3     1  UNL1        0.0053
      3 C         139.3900  140.7247  169.8275 C.3     1  UNL1        0.0004
      4 C         139.5591  142.0893  170.4272 C.3     1  UNL1        0.0000
      5 C         140.3510  143.1351  169.7000 C.3     1  UNL1        0.0004
      6 C         140.9740  142.8166  168.3732 C.3     1  UNL1        0.0053
      7 C         140.9254  140.3134  166.8044 C.ar    1  UNL1       -0.0206
      8 C         142.2395  139.6110  166.6322 C.ar    1  UNL1       -0.0033
      9 C         142.3600  138.4724  165.6632 C.ar    1  UNL1        0.0119
     10 C         141.1663  138.0363  164.8663 C.ar    1  UNL1        0.0682
     11 CL        141.2869  136.8977  163.8972 Cl      1  UNL1       -0.0814
     12 C         139.8522  138.7387  165.0385 C.ar    1  UNL1        0.0679
     13 CL        138.6586  138.3025  164.2417 Cl      1  UNL1       -0.0814
     14 C         139.7318  139.8772  166.0076 C.ar    1  UNL1        0.0080
     15 C         143.1236  142.2189  166.8874 C.3     1  UNL1        0.0177
     16 C         141.6388  142.1025  166.7098 C.3     1  UNL1        0.0613
     17 N         140.9878  142.6366  165.4685 N.3     1  UNL1       -0.2713
     18 C         139.7199  143.4319  165.5692 C.3     1  UNL1        0.0896
     19 C         141.6046  142.3754  164.1263 C.3     1  UNL1        0.0896
@<TRIPOS>BOND
     1    15    16    1
     2    16    17    1
     3    17    18    1
     4    17    19    1
     5    16     1    1
     6     1     7    1
     7     7     8   ar
     8     8     9   ar
     9     9    10   ar
    10    10    11    1
    11    10    12   ar
    12    12    13    1
    13    12    14   ar
    14     1     2    1
    15     2     3    1
    16     3     4    1
    17     4     5    1
    18     5     6    1
    19     6     1    1
    20    14     7   ar
@<TRIPOS>MOLECULE
*****
 19 20 0 0 0
SMALL
GASTEIGER

@<TRIPOS>ATOM
      1 C         141.7933  142.0335  167.8000 C.3     1  UNL1        0.0324
      2 C         140.7608  142.8861  168.4760 C.3     1  UNL1        0.0053
      3 C         141.0537  143.5005  169.8127 C.3     1  UNL1        0.0004
      4 C         142.3792  143.2622  170.4734 C.3     1  UNL1        0.0000
      5 C         143.4116  142.4095  169.7975 C.3     1  UNL1        0.0004
      6 C         143.1187  141.7952  168.4608 C.3     1  UNL1        0.0053
      7 C         140.6938  141.9677  166.7817 C.ar    1  UNL1       -0.0206
      8 C         140.3529  143.1799  165.9667 C.ar    1  UNL1       -0.0033
      9 C         139.2535  143.1141  164.9484 C.ar    1  UNL1        0.0119
     10 C         138.4950  141.8361  164.7451 C.ar    1  UNL1        0.0682
     11 CL        137.3956  141.7703  163.7268 Cl      1  UNL1       -0.0814
     12 C         138.8359  140.6238  165.5601 C.ar    1  UNL1        0.0679
     13 CL        138.0775  139.3458  165.3568 Cl      1  UNL1       -0.0814
     14 C         139.9353  140.6897  166.5784 C.ar    1  UNL1        0.0080
     15 C         142.4945  139.6725  166.9728 C.3     1  UNL1        0.0177
     16 C         142.4439  141.1579  166.7704 C.3     1  UNL1        0.0613
     17 N         143.0440  141.7678  165.5384 N.3     1  UNL1       -0.2713
     18 C         142.7814  141.1558  164.1943 C.3     1  UNL1        0.0896
     19 C         143.9068  142.9898  165.6504 C.3     1  UNL1        0.0896
@<TRIPOS>BOND
     1    15    16    1
     2    16    17    1
     3    17    18    1
     4    17    19    1
     5    16     1    1
     6     1     7    1
     7     7     8   ar
     8     8     9   ar
     9     9    10   ar
    10    10    11    1
    11    10    12   ar
    12    12    13    1
    13    12    14   ar
    14     1     2    1
    15     2     3    1
    16     3     4    1
    17     4     5    1
    18     5     6    1
    19     6     1    1
    20    14     7   ar
@<TRIPOS>MOLECULE
*****
 19 20 0 0 0
SMALL
GASTEIGER

@<TRIPOS>ATOM
      1 C         139.6371  142.1450  165.8119 C.3     1  UNL1        0.0324
      2 C         139.7575  143.6314  165.9733 C.3     1  UNL1        0.0053
      3 C         138.8508  144.5452  165.2033 C.3     1  UNL1        0.0004
      4 C         137.8237  143.9726  164.2721 C.3     1  UNL1        0.0000
      5 C         137.7033  142.4862  164.1108 C.3     1  UNL1        0.0004
      6 C         138.6100  141.5724  164.8807 C.3     1  UNL1        0.0053
      7 C         140.7576  142.2091  166.8072 C.ar    1  UNL1       -0.0206
      8 C         142.1748  142.3402  166.3337 C.ar    1  UNL1       -0.0033
      9 C         143.2952  142.4043  167.3290 C.ar    1  UNL1        0.0119
     10 C         142.9983  142.3373  168.7978 C.ar    1  UNL1        0.0682
     11 CL        144.1188  142.4014  169.7931 Cl      1  UNL1       -0.0814
     12 C         141.5811  142.2062  169.2713 C.ar    1  UNL1        0.0679
     13 CL        141.2843  142.1392  170.7401 Cl      1  UNL1       -0.0814
     14 C         140.4608  142.1421  168.2761 C.ar    1  UNL1        0.0080
     15 C         139.1888  139.9159  167.0690 C.3     1  UNL1        0.0177
     16 C         139.9059  140.6808  165.9963 C.3     1  UNL1        0.0613
     17 N         140.8917  139.9816  165.1080 N.3     1  UNL1       -0.2713
     18 C         141.0566  140.4168  163.6820 C.3     1  UNL1        0.0896
     19 C         141.7126  138.8470  165.6455 C.3     1  UNL1        0.0896
@<TRIPOS>BOND
     1    15    16    1
     2    16    17    1
     3    17    18    1
     4    17    19    1
     5    16     1    1
     6     1     7    1
     7     7     8   ar
     8     8     9   ar
     9     9    10   ar
    10    10    11    1
    11    10    12   ar
    12    12    13    1
    13    12    14   ar
    14     1     2    1
    15     2     3    1
    16     3     4    1
    17     4     5    1
    18     5     6    1
    19     6     1    1
    20    14     7   ar
@<TRIPOS>MOLECULE
*****
 19 20 0 0 0
SMALL
GASTEIGER

@<TRIPOS>ATOM
      1 C         141.6464  142.0254  167.6389 C.3     1  UNL1        0.0324
      2 C         140.6296  142.8809  168.3346 C.3     1  UNL1        0.0053
      3 C         140.9277  143.4468  169.6914 C.3     1  UNL1        0.0004
      4 C         142.2426  143.1571  170.3525 C.3     1  UNL1        0.0000
      5 C         143.2594  142.3015  169.6568 C.3     1  UNL1        0.0004
      6 C         142.9613  141.7356  168.3001 C.3     1  UNL1        0.0053
      7 C         140.5527  142.0169  166.6124 C.ar    1  UNL1       -0.0206
      8 C         139.7969  140.7519  166.3321 C.ar    1  UNL1       -0.0033
      9 C         138.7032  140.7435  165.3055 C.ar    1  UNL1        0.0119
     10 C         138.3654  142.0001  164.5593 C.ar    1  UNL1        0.0682
     11 CL        137.2716  141.9917  163.5327 Cl      1  UNL1       -0.0814
     12 C         139.1211  143.2651  164.8396 C.ar    1  UNL1        0.0679
     13 CL        138.7832  144.5217  164.0934 Cl      1  UNL1       -0.0814
     14 C         140.2148  143.2735  165.8661 C.ar    1  UNL1        0.0080
     15 C         142.2942  139.6748  166.7415 C.3     1  UNL1        0.0177
     16 C         142.2834  141.1668  166.5867 C.3     1  UNL1        0.0613
     17 N         142.9095  141.8002  165.3798 N.3     1  UNL1       -0.2713
     18 C         142.6426  141.2388  164.0146 C.3     1  UNL1        0.0896
     19 C         143.8025  142.9950  165.5379 C.3     1  UNL1        0.0896
@<TRIPOS>BOND
     1    15    16    1
     2    16    17    1
     3    17    18    1
     4    17    19    1
     5    16     1    1
     6     1     7    1
     7     7     8   ar
     8     8     9   ar
     9     9    10   ar
    10    10    11    1
    11    10    12   ar
    12    12    13    1
    13    12    14   ar
    14     1     2    1
    15     2     3    1
    16     3     4    1
    17     4     5    1
    18     5     6    1
    19     6     1    1
    20    14     7   ar
@<TRIPOS>MOLECULE
*****
 19 20 0 0 0
SMALL
GASTEIGER

@<TRIPOS>ATOM
      1 C         139.9517  141.7777  166.4177 C.3     1  UNL1        0.0324
      2 C         140.2805  142.9715  167.2642 C.3     1  UNL1        0.0053
      3 C         140.5004  142.8075  168.7389 C.3     1  UNL1        0.0004
      4 C         140.3915  141.4497  169.3671 C.3     1  UNL1        0.0000
      5 C         140.0627  140.2559  168.5205 C.3     1  UNL1        0.0004
      6 C         139.8428  140.4199  167.0458 C.3     1  UNL1        0.0053
      7 C         139.9456  142.8503  165.3690 C.ar    1  UNL1       -0.0206
      8 C         138.6544  143.2663  164.7292 C.ar    1  UNL1       -0.0033
      9 C         138.6484  144.3388  163.6805 C.ar    1  UNL1        0.0119
     10 C         139.9337  144.9953  163.2718 C.ar    1  UNL1        0.0682
     11 CL        139.9277  146.0678  162.2231 Cl      1  UNL1       -0.0814
     12 C         141.2250  144.5792  163.9116 C.ar    1  UNL1        0.0679
     13 CL        142.5103  145.2356  163.5029 Cl      1  UNL1       -0.0814
     14 C         141.2310  143.5067  164.9602 C.ar    1  UNL1        0.0080
     15 C         138.2050  140.5301  164.9539 C.3     1  UNL1        0.0177
     16 C         139.6207  140.9564  165.2069 C.3     1  UNL1        0.0613
     17 N         140.7055  140.5613  164.2492 N.3     1  UNL1       -0.2713
     18 C         140.4761  140.6679  162.7707 C.3     1  UNL1        0.0896
     19 C         142.0197  140.0597  164.7700 C.3     1  UNL1        0.0896
@<TRIPOS>BOND
     1    15    16    1
     2    16    17    1
     3    17    18    1
     4    17    19    1
     5    16     1    1
     6     1     7    1
     7     7     8   ar
     8     8     9   ar
     9     9    10   ar
    10    10    11    1
    11    10    12   ar
    12    12    13    1
    13    12    14   ar
    14     1     2    1
    15     2     3    1
    16     3     4    1
    17     4     5    1
    18     5     6    1
    19     6     1    1
    20    14     7   ar
@<TRIPOS>MOLECULE
*****
 19 20 0 0 0
SMALL
GASTEIGER

@<TRIPOS>ATOM
      1 C         140.7808  141.3966  167.3958 C.3     1  UNL1        0.0324
      2 C         140.8306  142.7162  168.1072 C.3     1  UNL1        0.0053
      3 C         140.2029  142.8622  169.4616 C.3     1  UNL1        0.0004
      4 C         139.5252  141.6886  170.1047 C.3     1  UNL1        0.0000
      5 C         139.4754  140.3690  169.3933 C.3     1  UNL1        0.0004
      6 C         140.1032  140.2230  168.0388 C.3     1  UNL1        0.0053
      7 C         141.5317  142.2101  166.3835 C.ar    1  UNL1       -0.0206
      8 C         143.0183  142.0584  166.2530 C.ar    1  UNL1       -0.0033
      9 C         143.7691  142.8718  165.2408 C.ar    1  UNL1        0.0119
     10 C         143.0333  143.8369  164.3591 C.ar    1  UNL1        0.0682
     11 CL        143.7842  144.6503  163.3469 Cl      1  UNL1       -0.0814
     12 C         141.5468  143.9885  164.4896 C.ar    1  UNL1        0.0679
     13 CL        140.8110  144.9535  163.6079 Cl      1  UNL1       -0.0814
     14 C         140.7959  143.1751  165.5018 C.ar    1  UNL1        0.0080
     15 C         142.1293  139.3885  166.4476 C.3     1  UNL1        0.0177
     16 C         140.9917  140.3595  166.3328 C.3     1  UNL1        0.0613
     17 N         140.0652  140.2934  165.1550 N.3     1  UNL1       -0.2713
     18 C         140.6149  140.0479  163.7811 C.3     1  UNL1        0.0896
     19 C         138.5889  140.4727  165.3512 C.3     1  UNL1        0.0896
@<TRIPOS>BOND
     1    15    16    1
     2    16    17    1
     3    17    18    1
     4    17    19    1
     5    16     1    1
     6     1     7    1
     7     7     8   ar
     8     8     9   ar
     9     9    10   ar
    10    10    11    1
    11    10    12   ar
    12    12    13    1
    13    12    14   ar
    14     1     2    1
    15     2     3    1
    16     3     4    1
    17     4     5    1
    18     5     6    1
    19     6     1    1
    20    14     7   ar
@<TRIPOS>MOLECULE
*****
 19 20 0 0 0
SMALL
GASTEIGER

@<TRIPOS>ATOM
      1 C         141.7270  142.0919  167.7843 C.3     1  UNL1        0.0324
      2 C         143.1233  141.9208  168.3046 C.3     1  UNL1        0.0053
      3 C         143.5000  142.4865  169.6418 C.3     1  UNL1        0.0004
      4 C         142.4803  143.2232  170.4587 C.3     1  UNL1        0.0000
      5 C         141.0839  143.3943  169.9384 C.3     1  UNL1        0.0004
      6 C         140.7072  142.8287  168.6012 C.3     1  UNL1        0.0053
      7 C         142.3351  141.3217  166.6498 C.ar    1  UNL1       -0.0206
      8 C         142.6852  139.8741  166.8286 C.ar    1  UNL1       -0.0033
      9 C         143.2933  139.1040  165.6941 C.ar    1  UNL1        0.0119
     10 C         143.5513  139.7813  164.3809 C.ar    1  UNL1        0.0682
     11 CL        144.1594  139.0111  163.2464 Cl      1  UNL1       -0.0814
     12 C         143.2011  141.2288  164.2021 C.ar    1  UNL1        0.0679
     13 CL        143.4591  141.9062  162.8888 Cl      1  UNL1       -0.0814
     14 C         142.5930  141.9990  165.3365 C.ar    1  UNL1        0.0080
     15 C         140.1664  143.1608  166.0031 C.3     1  UNL1        0.0177
     16 C         140.5417  141.9955  166.8699 C.3     1  UNL1        0.0613
     17 N         139.7318  140.7339  166.8225 N.3     1  UNL1       -0.2713
     18 C         139.4246  139.9917  168.0893 C.3     1  UNL1        0.0896
     19 C         139.2290  140.2144  165.5082 C.3     1  UNL1        0.0896
@<TRIPOS>BOND
     1    15    16    1
     2    16    17    1
     3    17    18    1
     4    17    19    1
     5    16     1    1
     6     1     7    1
     7     7     8   ar
     8     8     9   ar
     9     9    10   ar
    10    10    11    1
    11    10    12   ar
    12    12    13    1
    13    12    14   ar
    14     1     2    1
    15     2     3    1
    16     3     4    1
    17     4     5    1
    18     5     6    1
    19     6     1    1
    20    14     7   ar
@<TRIPOS>MOLECULE
*****
 19 20 0 0 0
SMALL
GASTEIGER

@<TRIPOS>ATOM
      1 C         141.1963  140.7045  167.4376 C.3     1  UNL1        0.0324
      2 C         139.9203  140.6610  168.2249 C.3     1  UNL1        0.0053
      3 C         139.9187  140.1127  169.6211 C.3     1  UNL1        0.0004
      4 C         141.1933  139.6079  170.2300 C.3     1  UNL1        0.0000
      5 C         142.4693  139.6514  169.4427 C.3     1  UNL1        0.0004
      6 C         142.4708  140.1997  168.0466 C.3     1  UNL1        0.0053
      7 C         140.2509  141.2957  166.4342 C.ar    1  UNL1       -0.0206
      8 C         139.2444  140.4217  165.7463 C.ar    1  UNL1       -0.0033
      9 C         138.2991  141.0130  164.7430 C.ar    1  UNL1        0.0119
     10 C         138.3602  142.4781  164.4275 C.ar    1  UNL1        0.0682
     11 CL        137.4148  143.0694  163.4241 Cl      1  UNL1       -0.0814
     12 C         139.3667  143.3521  165.1154 C.ar    1  UNL1        0.0679
     13 CL        139.4278  144.8173  164.7999 Cl      1  UNL1       -0.0814
     14 C         140.3120  142.7609  166.1187 C.ar    1  UNL1        0.0080
     15 C         143.0265  142.1662  166.3135 C.3     1  UNL1        0.0177
     16 C         142.1440  140.9533  166.3019 C.3     1  UNL1        0.0613
     17 N         142.2093  139.9893  165.1546 N.3     1  UNL1       -0.2713
     18 C         142.2180  138.5122  165.4156 C.3     1  UNL1        0.0896
     19 C         142.2658  140.5023  163.7462 C.3     1  UNL1        0.0896
@<TRIPOS>BOND
     1    15    16    1
     2    16    17    1
     3    17    18    1
     4    17    19    1
     5    16     1    1
     6     1     7    1
     7     7     8   ar
     8     8     9   ar
     9     9    10   ar
    10    10    11    1
    11    10    12   ar
    12    12    13    1
    13    12    14   ar
    14     1     2    1
    15     2     3    1
    16     3     4    1
    17     4     5    1
    18     5     6    1
    19     6     1    1
    20    14     7   ar
