@<TRIPOS>MOLECULE
*****
 36 39 0 0 0
SMALL
GASTEIGER

@<TRIPOS>ATOM
      1 N         141.7311  143.7340  161.3610 N.3     1  UNL1       -0.2673
      2 C         142.7792  144.1189  162.3626 C.3     1  UNL1        0.1035
      3 C         143.5062  143.0569  163.1330 C.3     1  UNL1        0.1470
      4 C         144.2333  141.9948  163.9034 C.3     1  UNL1        0.1035
      5 N         143.9123  140.5480  163.6722 N.3     1  UNL1       -0.2684
      6 C         142.8642  140.1631  162.6704 C.3     1  UNL1        0.1035
      7 C         142.1371  141.2251  161.9001 C.3     1  UNL1        0.1470
      8 C         141.4100  142.2871  161.1297 C.3     1  UNL1        0.1035
      9 O         143.1852  141.6100  162.9017 O.3     1  UNL1       -0.3530
     10 C         141.0040  144.7960  160.5906 C.3     1  UNL1        0.0913
     11 C         140.2728  145.8838  161.3199 C.3     1  UNL1        0.1087
     12 N         138.9715  145.5850  162.0036 N.3     1  UNL1       -0.1780
     13 H         138.7837  146.3653  162.6331 H       1  UNL1        0.1488
     14 S         138.8196  144.3305  162.8117 S.O2    1  UNL1        0.0603
     15 O         137.9869  143.7277  161.7194 O.2     1  UNL1       -0.1530
     16 O         139.6523  144.9333  163.9040 O.2     1  UNL1       -0.1530
     17 C         138.3639  140.5669  165.2361 C.ar    1  UNL1        0.0685
     18 C         139.2918  141.6502  165.7002 C.ar    1  UNL1        0.0116
     19 C         139.4437  142.9048  164.8920 C.ar    1  UNL1        0.0206
     20 C         138.6677  143.0760  163.6198 C.ar    1  UNL1        0.1220
     21 C         137.7398  141.9926  163.1557 C.ar    1  UNL1        0.0206
     22 C         137.5879  140.7381  163.9638 C.ar    1  UNL1        0.0116
     23 N         138.0601  138.0578  166.8523 N.1     1  UNL1       -0.1908
     24 C         138.2120  139.3124  166.0442 C.1     1  UNL1        0.1004
     25 C         144.6394  139.4860  164.4425 C.3     1  UNL1        0.0761
     26 C         143.9463  138.7615  165.5582 C.3     1  UNL1        0.0646
     27 C         142.7947  139.4070  166.2704 C.3     1  UNL1        0.2070
     28 O         142.8318  139.5713  167.7609 O.3     1  UNL1       -0.4731
     29 C         141.8836  140.5183  168.4349 C.ar    1  UNL1        0.1680
     30 C         140.5444  140.0319  168.9036 C.ar    1  UNL1        0.0688
     31 C         139.5964  140.9790  169.5776 C.ar    1  UNL1        0.1433
     32 F         138.2570  140.4926  170.0464 F       1  UNL1       -0.2041
     33 C         139.9876  142.4125  169.7828 C.ar    1  UNL1        0.0322
     34 C         141.3268  142.8989  169.3140 C.ar    1  UNL1        0.0351
     35 C         142.2748  141.9518  168.6401 C.ar    1  UNL1        0.1740
     36 F         143.6142  142.4382  168.1713 F       1  UNL1       -0.2010
@<TRIPOS>BOND
     1    23    24    3
     2    24    17    1
     3    17    18   ar
     4    18    19   ar
     5    19    20   ar
     6    20    14    1
     7    14    15    2
     8    14    16    2
     9    14    12    1
    10    12    11    1
    11    11    10    1
    12    10     1    1
    13     1     2    1
    14     2     3    1
    15     3     4    1
    16     4     5    1
    17     5    25    1
    18    25    26    1
    19    26    27    1
    20    27    28    1
    21    28    29    1
    22    29    30   ar
    23    30    31   ar
    24    31    32    1
    25    31    33   ar
    26    33    34   ar
    27    34    35   ar
    28    35    36    1
    29     5     6    1
    30     6     7    1
    31     7     8    1
    32     7     9    1
    33    20    21   ar
    34    21    22   ar
    35    22    17   ar
    36     8     1    1
    37     9     3    1
    38    35    29   ar
    39    12    13    1
@<TRIPOS>MOLECULE
*****
 36 39 0 0 0
SMALL
GASTEIGER

@<TRIPOS>ATOM
      1 N         141.0500  140.8777  159.1581 N.3     1  UNL1       -0.2673
      2 C         141.3257  142.3503  159.2316 C.3     1  UNL1        0.1035
      3 C         140.5127  143.2208  160.1433 C.3     1  UNL1        0.1470
      4 C         139.6996  144.0915  161.0549 C.3     1  UNL1        0.1035
      5 N         138.6110  143.4895  161.8930 N.3     1  UNL1       -0.2684
      6 C         138.3353  142.0168  161.8194 C.3     1  UNL1        0.1035
      7 C         139.1483  141.1462  160.9078 C.3     1  UNL1        0.1470
      8 C         139.9613  140.2757  159.9962 C.3     1  UNL1        0.1035
      9 O         139.4240  142.6188  160.9813 O.3     1  UNL1       -0.3530
     10 C         141.8630  140.0070  158.2464 C.3     1  UNL1        0.0913
     11 C         143.1891  139.4751  158.7030 C.3     1  UNL1        0.1087
     12 N         143.2491  138.2470  159.5623 N.3     1  UNL1       -0.1780
     13 H         142.4591  137.6605  159.2932 H       1  UNL1        0.1488
     14 S         143.2050  138.3741  161.0562 S.O2    1  UNL1        0.0603
     15 O         144.3582  139.3321  161.0088 O.2     1  UNL1       -0.1530
     16 O         142.0518  137.4161  161.1036 O.2     1  UNL1       -0.1530
     17 C         143.0726  138.7552  165.5381 C.ar    1  UNL1        0.0685
     18 C         144.2871  139.2070  164.7825 C.ar    1  UNL1        0.0116
     19 C         144.3312  139.0799  163.2885 C.ar    1  UNL1        0.0206
     20 C         143.1609  138.5011  162.5501 C.ar    1  UNL1        0.1220
     21 C         141.9463  138.0493  163.3058 C.ar    1  UNL1        0.0206
     22 C         141.9022  138.1764  164.7997 C.ar    1  UNL1        0.0116
     23 N         142.9844  139.0092  168.5260 N.1     1  UNL1       -0.1908
     24 C         143.0285  138.8822  167.0320 C.1     1  UNL1        0.1004
     25 C         137.7980  144.3600  162.8046 C.3     1  UNL1        0.0761
     26 C         137.7797  144.0902  164.2801 C.3     1  UNL1        0.0646
     27 C         138.8235  144.7013  165.1672 C.3     1  UNL1        0.2070
     28 O         140.0139  143.8932  165.5913 O.3     1  UNL1       -0.4731
     29 C         141.0824  143.5523  164.5953 C.ar    1  UNL1        0.1680
     30 C         142.0741  144.5953  164.1727 C.ar    1  UNL1        0.0688
     31 C         143.1426  144.2544  163.1767 C.ar    1  UNL1        0.1433
     32 F         144.1344  145.2974  162.7540 F       1  UNL1       -0.2041
     33 C         143.2194  142.8704  162.6032 C.ar    1  UNL1        0.0322
     34 C         142.2277  141.8274  163.0258 C.ar    1  UNL1        0.0351
     35 C         141.1592  142.1684  164.0218 C.ar    1  UNL1        0.1740
     36 F         140.1674  141.1253  164.4445 F       1  UNL1       -0.2010
@<TRIPOS>BOND
     1    23    24    3
     2    24    17    1
     3    17    18   ar
     4    18    19   ar
     5    19    20   ar
     6    20    14    1
     7    14    15    2
     8    14    16    2
     9    14    12    1
    10    12    11    1
    11    11    10    1
    12    10     1    1
    13     1     2    1
    14     2     3    1
    15     3     4    1
    16     4     5    1
    17     5    25    1
    18    25    26    1
    19    26    27    1
    20    27    28    1
    21    28    29    1
    22    29    30   ar
    23    30    31   ar
    24    31    32    1
    25    31    33   ar
    26    33    34   ar
    27    34    35   ar
    28    35    36    1
    29     5     6    1
    30     6     7    1
    31     7     8    1
    32     7     9    1
    33    20    21   ar
    34    21    22   ar
    35    22    17   ar
    36     8     1    1
    37     9     3    1
    38    35    29   ar
    39    12    13    1
@<TRIPOS>MOLECULE
*****
 36 39 0 0 0
SMALL
GASTEIGER

@<TRIPOS>ATOM
      1 N         140.2469  140.2283  159.5877 N.3     1  UNL1       -0.2673
      2 C         139.0311  139.8469  160.3791 C.3     1  UNL1        0.1035
      3 C         138.3837  140.8486  161.2887 C.3     1  UNL1        0.1470
      4 C         137.7363  141.8504  162.1984 C.3     1  UNL1        0.1035
      5 N         138.3046  143.2335  162.3165 N.3     1  UNL1       -0.2684
      6 C         139.5205  143.6149  161.5250 C.3     1  UNL1        0.1035
      7 C         140.1678  142.6131  160.6154 C.3     1  UNL1        0.1470
      8 C         140.8152  141.6114  159.7058 C.3     1  UNL1        0.1035
      9 O         138.9521  142.2317  161.4068 O.3     1  UNL1       -0.3530
     10 C         140.8943  139.2266  158.6780 C.3     1  UNL1        0.0913
     11 C         142.3383  138.8665  158.8656 C.3     1  UNL1        0.1087
     12 N         142.7194  137.7581  159.8018 N.3     1  UNL1       -0.1780
     13 H         142.0518  137.0020  159.6502 H       1  UNL1        0.1488
     14 S         142.7634  138.0071  161.2803 S.O2    1  UNL1        0.0603
     15 O         141.3848  137.4323  161.4180 O.2     1  UNL1       -0.1530
     16 O         144.1420  138.5819  161.1425 O.2     1  UNL1       -0.1530
     17 C         142.8951  138.7539  165.7159 C.ar    1  UNL1        0.0685
     18 C         143.9488  139.3417  164.8248 C.ar    1  UNL1        0.0116
     19 C         143.9049  139.0928  163.3462 C.ar    1  UNL1        0.0206
     20 C         142.8073  138.2560  162.7588 C.ar    1  UNL1        0.1220
     21 C         141.7535  137.6682  163.6500 C.ar    1  UNL1        0.0206
     22 C         141.7975  137.9172  165.1285 C.ar    1  UNL1        0.0116
     23 N         142.9830  139.2518  168.6730 N.1     1  UNL1       -0.1908
     24 C         142.9390  139.0029  167.1944 C.1     1  UNL1        0.1004
     25 C         137.6573  144.2352  163.2261 C.3     1  UNL1        0.0761
     26 C         138.0353  144.2852  164.6769 C.3     1  UNL1        0.0646
     27 C         139.4805  144.2518  165.0769 C.3     1  UNL1        0.2070
     28 O         140.2436  142.9615  165.0243 O.3     1  UNL1       -0.4731
     29 C         139.8744  141.8339  165.9421 C.ar    1  UNL1        0.1680
     30 C         139.1721  140.6245  165.3997 C.ar    1  UNL1        0.0688
     31 C         138.8030  139.4970  166.3175 C.ar    1  UNL1        0.1433
     32 F         138.1007  138.2876  165.7751 F       1  UNL1       -0.2041
     33 C         139.1362  139.5788  167.7777 C.ar    1  UNL1        0.0322
     34 C         139.8385  140.7881  168.3202 C.ar    1  UNL1        0.0351
     35 C         140.2076  141.9157  167.4024 C.ar    1  UNL1        0.1740
     36 F         140.9099  143.1251  167.9448 F       1  UNL1       -0.2010
@<TRIPOS>BOND
     1    23    24    3
     2    24    17    1
     3    17    18   ar
     4    18    19   ar
     5    19    20   ar
     6    20    14    1
     7    14    15    2
     8    14    16    2
     9    14    12    1
    10    12    11    1
    11    11    10    1
    12    10     1    1
    13     1     2    1
    14     2     3    1
    15     3     4    1
    16     4     5    1
    17     5    25    1
    18    25    26    1
    19    26    27    1
    20    27    28    1
    21    28    29    1
    22    29    30   ar
    23    30    31   ar
    24    31    32    1
    25    31    33   ar
    26    33    34   ar
    27    34    35   ar
    28    35    36    1
    29     5     6    1
    30     6     7    1
    31     7     8    1
    32     7     9    1
    33    20    21   ar
    34    21    22   ar
    35    22    17   ar
    36     8     1    1
    37     9     3    1
    38    35    29   ar
    39    12    13    1
@<TRIPOS>MOLECULE
*****
 36 39 0 0 0
SMALL
GASTEIGER

@<TRIPOS>ATOM
      1 N         139.6840  142.6852  159.7418 N.3     1  UNL1       -0.2673
      2 C         138.5471  142.6525  160.7197 C.3     1  UNL1        0.1035
      3 C         138.2753  141.4085  161.5125 C.3     1  UNL1        0.1470
      4 C         138.0035  140.1644  162.3053 C.3     1  UNL1        0.1035
      5 N         138.8686  138.9531  162.1202 N.3     1  UNL1       -0.2684
      6 C         140.0056  138.9858  161.1422 C.3     1  UNL1        0.1035
      7 C         140.2774  140.2298  160.3495 C.3     1  UNL1        0.1470
      8 C         140.5491  141.4738  159.5567 C.3     1  UNL1        0.1035
      9 O         139.1405  140.1972  161.3274 O.3     1  UNL1       -0.3530
     10 C         139.9558  143.9292  158.9489 C.3     1  UNL1        0.0913
     11 C         140.3032  145.2069  159.6538 C.3     1  UNL1        0.1087
     12 N         141.6214  145.3411  160.3569 N.3     1  UNL1       -0.1780
     13 H         142.3335  144.9885  159.7174 H       1  UNL1        0.1488
     14 S         141.8431  144.6554  161.6724 S.O2    1  UNL1        0.0603
     15 O         143.1278  144.0791  161.1555 O.2     1  UNL1       -0.1530
     16 O         140.5583  145.2318  162.1893 O.2     1  UNL1       -0.1530
     17 C         142.5080  142.5983  165.6190 C.ar    1  UNL1        0.0685
     18 C         143.6274  143.3580  164.9713 C.ar    1  UNL1        0.0116
     19 C         143.4058  144.0438  163.6557 C.ar    1  UNL1        0.0206
     20 C         142.0647  143.9697  162.9879 C.ar    1  UNL1        0.1220
     21 C         140.9452  143.2100  163.6357 C.ar    1  UNL1        0.0206
     22 C         141.1669  142.5243  164.9512 C.ar    1  UNL1        0.0116
     23 N         142.9512  141.2268  168.2501 N.1     1  UNL1       -0.1908
     24 C         142.7296  141.9126  166.9346 C.1     1  UNL1        0.1004
     25 C         138.5969  137.7091  162.9130 C.3     1  UNL1        0.0761
     26 C         138.9907  137.6401  164.3588 C.3     1  UNL1        0.0646
     27 C         140.0462  138.5621  164.8934 C.3     1  UNL1        0.2070
     28 O         141.4446  138.0609  165.1008 O.3     1  UNL1       -0.4731
     29 C         142.6068  138.8286  164.5438 C.ar    1  UNL1        0.1680
     30 C         142.4567  139.5901  163.2603 C.ar    1  UNL1        0.0688
     31 C         143.6188  140.3577  162.7034 C.ar    1  UNL1        0.1433
     32 F         143.4687  141.1192  161.4197 F       1  UNL1       -0.2041
     33 C         144.9310  140.3638  163.4300 C.ar    1  UNL1        0.0322
     34 C         145.0812  139.6023  164.7135 C.ar    1  UNL1        0.0351
     35 C         143.9191  138.8347  165.2705 C.ar    1  UNL1        0.1740
     36 F         144.0691  138.0732  166.5541 F       1  UNL1       -0.2010
@<TRIPOS>BOND
     1    23    24    3
     2    24    17    1
     3    17    18   ar
     4    18    19   ar
     5    19    20   ar
     6    20    14    1
     7    14    15    2
     8    14    16    2
     9    14    12    1
    10    12    11    1
    11    11    10    1
    12    10     1    1
    13     1     2    1
    14     2     3    1
    15     3     4    1
    16     4     5    1
    17     5    25    1
    18    25    26    1
    19    26    27    1
    20    27    28    1
    21    28    29    1
    22    29    30   ar
    23    30    31   ar
    24    31    32    1
    25    31    33   ar
    26    33    34   ar
    27    34    35   ar
    28    35    36    1
    29     5     6    1
    30     6     7    1
    31     7     8    1
    32     7     9    1
    33    20    21   ar
    34    21    22   ar
    35    22    17   ar
    36     8     1    1
    37     9     3    1
    38    35    29   ar
    39    12    13    1
@<TRIPOS>MOLECULE
*****
 36 39 0 0 0
SMALL
GASTEIGER

@<TRIPOS>ATOM
      1 N         141.6090  144.5101  161.3338 N.3     1  UNL1       -0.2673
      2 C         141.9895  143.2869  160.5536 C.3     1  UNL1        0.1035
      3 C         142.9653  142.3037  161.1290 C.3     1  UNL1        0.1470
      4 C         143.9411  141.3205  161.7045 C.3     1  UNL1        0.1035
      5 N         144.5364  141.5607  163.0602 N.3     1  UNL1       -0.2684
      6 C         144.1559  142.7840  163.8405 C.3     1  UNL1        0.1035
      7 C         143.1801  143.7671  163.2650 C.3     1  UNL1        0.1470
      8 C         142.2043  144.7503  162.6895 C.3     1  UNL1        0.1035
      9 O         143.5606  142.5439  162.4848 O.3     1  UNL1       -0.3530
     10 C         140.6331  145.4933  160.7583 C.3     1  UNL1        0.0913
     11 C         139.4961  145.9992  161.5957 C.3     1  UNL1        0.1087
     12 N         138.4617  145.0435  162.1120 N.3     1  UNL1       -0.1780
     13 H         137.6596  145.6045  162.3990 H       1  UNL1        0.1488
     14 S         138.7870  144.1343  163.2598 S.O2    1  UNL1        0.0603
     15 O         138.3810  142.9486  162.4357 O.2     1  UNL1       -0.1530
     16 O         139.1931  145.3199  164.0839 O.2     1  UNL1       -0.1530
     17 C         139.7632  141.4066  166.7032 C.ar    1  UNL1        0.0685
     18 C         138.9278  140.9052  165.5627 C.ar    1  UNL1        0.0116
     19 C         138.6024  141.8144  164.4148 C.ar    1  UNL1        0.0206
     20 C         139.1124  143.2250  164.4076 C.ar    1  UNL1        0.1220
     21 C         139.9478  143.7264  165.5481 C.ar    1  UNL1        0.0206
     22 C         140.2731  142.8172  166.6959 C.ar    1  UNL1        0.0116
     23 N         140.4139  139.5881  168.9988 N.1     1  UNL1       -0.1908
     24 C         140.0885  140.4974  167.8509 C.1     1  UNL1        0.1004
     25 C         145.5122  140.5775  163.6357 C.3     1  UNL1        0.0761
     26 C         145.0477  139.5530  164.6281 C.3     1  UNL1        0.0646
     27 C         143.6177  139.1002  164.6249 C.3     1  UNL1        0.2070
     28 O         143.0739  138.3415  163.4508 O.3     1  UNL1       -0.4731
     29 C         141.5960  138.1203  163.3201 C.ar    1  UNL1        0.1680
     30 C         140.7770  137.7898  164.5325 C.ar    1  UNL1        0.0688
     31 C         139.2992  137.5686  164.4017 C.ar    1  UNL1        0.1433
     32 F         138.4801  137.2381  165.6141 F       1  UNL1       -0.2041
     33 C         138.6404  137.6780  163.0586 C.ar    1  UNL1        0.0322
     34 C         139.4594  138.0086  161.8462 C.ar    1  UNL1        0.0351
     35 C         140.9372  138.2297  161.9770 C.ar    1  UNL1        0.1740
     36 F         141.7563  138.5603  160.7645 F       1  UNL1       -0.2010
@<TRIPOS>BOND
     1    23    24    3
     2    24    17    1
     3    17    18   ar
     4    18    19   ar
     5    19    20   ar
     6    20    14    1
     7    14    15    2
     8    14    16    2
     9    14    12    1
    10    12    11    1
    11    11    10    1
    12    10     1    1
    13     1     2    1
    14     2     3    1
    15     3     4    1
    16     4     5    1
    17     5    25    1
    18    25    26    1
    19    26    27    1
    20    27    28    1
    21    28    29    1
    22    29    30   ar
    23    30    31   ar
    24    31    32    1
    25    31    33   ar
    26    33    34   ar
    27    34    35   ar
    28    35    36    1
    29     5     6    1
    30     6     7    1
    31     7     8    1
    32     7     9    1
    33    20    21   ar
    34    21    22   ar
    35    22    17   ar
    36     8     1    1
    37     9     3    1
    38    35    29   ar
    39    12    13    1
@<TRIPOS>MOLECULE
*****
 36 39 0 0 0
SMALL
GASTEIGER

@<TRIPOS>ATOM
      1 N         141.1662  141.1146  159.4939 N.3     1  UNL1       -0.2673
      2 C         142.6555  141.2777  159.4196 C.3     1  UNL1        0.1035
      3 C         143.3529  142.2291  160.3460 C.3     1  UNL1        0.1470
      4 C         144.0504  143.1806  161.2725 C.3     1  UNL1        0.1035
      5 N         143.2585  143.9689  162.2733 N.3     1  UNL1       -0.2684
      6 C         141.7692  143.8058  162.3476 C.3     1  UNL1        0.1035
      7 C         141.0718  142.8544  161.4211 C.3     1  UNL1        0.1470
      8 C         140.3744  141.9030  160.4946 C.3     1  UNL1        0.1035
      9 O         142.5610  143.0175  161.3468 O.3     1  UNL1       -0.3530
     10 C         140.4687  140.1632  158.5674 C.3     1  UNL1        0.0913
     11 C         139.1698  139.5345  158.9766 C.3     1  UNL1        0.1087
     12 N         139.1677  138.3400  159.8839 N.3     1  UNL1       -0.1780
     13 H         138.3873  137.7509  159.5933 H       1  UNL1        0.1488
     14 S         139.0416  138.5250  161.3671 S.O2    1  UNL1        0.0603
     15 O         137.8576  139.4211  161.1547 O.2     1  UNL1       -0.1530
     16 O         140.2256  137.6290  161.5795 O.2     1  UNL1       -0.1530
     17 C         138.6634  139.0801  165.8167 C.ar    1  UNL1        0.0685
     18 C         138.5753  140.2662  164.9028 C.ar    1  UNL1        0.0116
     19 C         138.7013  140.0812  163.4195 C.ar    1  UNL1        0.0206
     20 C         138.9155  138.7101  162.8503 C.ar    1  UNL1        0.1220
     21 C         139.0037  137.5239  163.7643 C.ar    1  UNL1        0.0206
     22 C         138.8776  137.7089  165.2474 C.ar    1  UNL1        0.0116
     23 N         138.4113  139.4501  168.7831 N.1     1  UNL1       -0.1908
     24 C         138.5374  139.2651  167.2998 C.1     1  UNL1        0.1004
     25 C         143.9559  144.9203  163.1998 C.3     1  UNL1        0.0761
     26 C         143.8759  144.7164  164.6837 C.3     1  UNL1        0.0646
     27 C         144.5694  143.5476  165.3186 C.3     1  UNL1        0.2070
     28 O         143.7663  142.4742  165.9915 O.3     1  UNL1       -0.4731
     29 C         143.4643  141.1969  165.2654 C.ar    1  UNL1        0.1680
     30 C         144.1216  140.9096  163.9480 C.ar    1  UNL1        0.0688
     31 C         143.8196  139.6323  163.2219 C.ar    1  UNL1        0.1433
     32 F         144.4768  139.3451  161.9045 F       1  UNL1       -0.2041
     33 C         142.8604  138.6422  163.8132 C.ar    1  UNL1        0.0322
     34 C         142.2031  138.9295  165.1306 C.ar    1  UNL1        0.0351
     35 C         142.5051  140.2068  165.8567 C.ar    1  UNL1        0.1740
     36 F         141.8479  140.4940  167.1741 F       1  UNL1       -0.2010
@<TRIPOS>BOND
     1    23    24    3
     2    24    17    1
     3    17    18   ar
     4    18    19   ar
     5    19    20   ar
     6    20    14    1
     7    14    15    2
     8    14    16    2
     9    14    12    1
    10    12    11    1
    11    11    10    1
    12    10     1    1
    13     1     2    1
    14     2     3    1
    15     3     4    1
    16     4     5    1
    17     5    25    1
    18    25    26    1
    19    26    27    1
    20    27    28    1
    21    28    29    1
    22    29    30   ar
    23    30    31   ar
    24    31    32    1
    25    31    33   ar
    26    33    34   ar
    27    34    35   ar
    28    35    36    1
    29     5     6    1
    30     6     7    1
    31     7     8    1
    32     7     9    1
    33    20    21   ar
    34    21    22   ar
    35    22    17   ar
    36     8     1    1
    37     9     3    1
    38    35    29   ar
    39    12    13    1
@<TRIPOS>MOLECULE
*****
 36 39 0 0 0
SMALL
GASTEIGER

@<TRIPOS>ATOM
      1 N         141.2172  144.1385  158.4987 N.3     1  UNL1       -0.2673
      2 C         140.3205  142.9773  158.8107 C.3     1  UNL1        0.1035
      3 C         139.4546  143.0062  160.0351 C.3     1  UNL1        0.1470
      4 C         138.5886  143.0351  161.2596 C.3     1  UNL1        0.1035
      5 N         138.6194  144.2253  162.1721 N.3     1  UNL1       -0.2684
      6 C         139.5162  145.3865  161.8601 C.3     1  UNL1        0.1035
      7 C         140.3821  145.3576  160.6356 C.3     1  UNL1        0.1470
      8 C         141.2480  145.3287  159.4112 C.3     1  UNL1        0.1035
      9 O         139.4854  144.1964  160.9476 O.3     1  UNL1       -0.3530
     10 C         142.0832  144.1097  157.2742 C.3     1  UNL1        0.0913
     11 C         143.1997  143.1136  157.1685 C.3     1  UNL1        0.1087
     12 N         144.2438  143.0404  158.2431 N.3     1  UNL1       -0.1780
     13 H         145.0894  142.6722  157.8075 H       1  UNL1        0.1488
     14 S         143.9974  142.2185  159.4734 S.O2    1  UNL1        0.0603
     15 O         144.4125  143.3772  160.3307 O.2     1  UNL1       -0.1530
     16 O         143.5824  141.0597  158.6162 O.2     1  UNL1       -0.1530
     17 C         143.2584  139.7527  163.1645 C.ar    1  UNL1        0.0685
     18 C         142.2504  139.7608  162.0537 C.ar    1  UNL1        0.0116
     19 C         142.4967  140.5827  160.8233 C.ar    1  UNL1        0.0206
     20 C         143.7511  141.3965  160.7037 C.ar    1  UNL1        0.1220
     21 C         144.7591  141.3884  161.8145 C.ar    1  UNL1        0.0206
     22 C         144.5128  140.5665  163.0449 C.ar    1  UNL1        0.0116
     23 N         142.7658  138.1088  165.6252 N.1     1  UNL1       -0.1908
     24 C         143.0121  138.9308  164.3948 C.1     1  UNL1        0.1004
     25 C         137.7535  144.2542  163.3966 C.3     1  UNL1        0.0761
     26 C         138.3715  144.1099  164.7558 C.3     1  UNL1        0.0646
     27 C         139.0051  142.8110  165.1575 C.3     1  UNL1        0.2070
     28 O         140.1388  142.2489  164.3521 O.3     1  UNL1       -0.4731
     29 C         141.5414  142.7185  164.6018 C.ar    1  UNL1        0.1680
     30 C         142.1891  143.6836  163.6537 C.ar    1  UNL1        0.0688
     31 C         143.5916  144.1532  163.9034 C.ar    1  UNL1        0.1433
     32 F         144.2395  145.1184  162.9553 F       1  UNL1       -0.2041
     33 C         144.3464  143.6577  165.1012 C.ar    1  UNL1        0.0322
     34 C         143.6986  142.6926  166.0493 C.ar    1  UNL1        0.0351
     35 C         142.2961  142.2230  165.7996 C.ar    1  UNL1        0.1740
     36 F         141.6483  141.2579  166.7477 F       1  UNL1       -0.2010
@<TRIPOS>BOND
     1    23    24    3
     2    24    17    1
     3    17    18   ar
     4    18    19   ar
     5    19    20   ar
     6    20    14    1
     7    14    15    2
     8    14    16    2
     9    14    12    1
    10    12    11    1
    11    11    10    1
    12    10     1    1
    13     1     2    1
    14     2     3    1
    15     3     4    1
    16     4     5    1
    17     5    25    1
    18    25    26    1
    19    26    27    1
    20    27    28    1
    21    28    29    1
    22    29    30   ar
    23    30    31   ar
    24    31    32    1
    25    31    33   ar
    26    33    34   ar
    27    34    35   ar
    28    35    36    1
    29     5     6    1
    30     6     7    1
    31     7     8    1
    32     7     9    1
    33    20    21   ar
    34    21    22   ar
    35    22    17   ar
    36     8     1    1
    37     9     3    1
    38    35    29   ar
    39    12    13    1
@<TRIPOS>MOLECULE
*****
 36 39 0 0 0
SMALL
GASTEIGER

@<TRIPOS>ATOM
      1 N         142.6721  140.0592  160.2075 N.3     1  UNL1       -0.2673
      2 C         143.5333  141.2155  160.6216 C.3     1  UNL1        0.1035
      3 C         142.9407  142.5886  160.7363 C.3     1  UNL1        0.1470
      4 C         142.3481  143.9619  160.8510 C.3     1  UNL1        0.1035
      5 N         140.8944  144.1789  160.5515 N.3     1  UNL1       -0.2684
      6 C         140.0333  143.0225  160.1373 C.3     1  UNL1        0.1035
      7 C         140.6259  141.6494  160.0227 C.3     1  UNL1        0.1470
      8 C         141.2184  140.2762  159.9080 C.3     1  UNL1        0.1035
      9 O         141.4870  142.8056  160.4368 O.3     1  UNL1       -0.3530
     10 C         143.2647  138.6860  160.0928 C.3     1  UNL1        0.0913
     11 C         143.7034  137.9530  161.3258 C.3     1  UNL1        0.1087
     12 N         142.7344  137.7265  162.4482 N.3     1  UNL1       -0.1780
     13 H         141.7988  137.8247  162.0539 H       1  UNL1        0.1488
     14 S         142.7835  138.5971  163.6687 S.O2    1  UNL1        0.0603
     15 O         141.3780  138.1991  164.0092 O.2     1  UNL1       -0.1530
     16 O         144.1891  138.9952  163.3281 O.2     1  UNL1       -0.1530
     17 C         142.9309  141.2093  167.3299 C.ar    1  UNL1        0.0685
     18 C         142.5894  139.7545  167.4598 C.ar    1  UNL1        0.0116
     19 C         142.5403  138.8837  166.2394 C.ar    1  UNL1        0.0206
     20 C         142.8326  139.4678  164.8891 C.ar    1  UNL1        0.1220
     21 C         143.1742  140.9227  164.7592 C.ar    1  UNL1        0.0206
     22 C         143.2233  141.7934  165.9796 C.ar    1  UNL1        0.0116
     23 N         143.0292  142.9506  169.7709 N.1     1  UNL1       -0.1908
     24 C         142.9800  142.0799  168.5504 C.1     1  UNL1        0.1004
     25 C         140.3019  145.5520  160.6662 C.3     1  UNL1        0.0761
     26 C         139.7609  146.0280  161.9818 C.3     1  UNL1        0.0646
     27 C         138.8296  145.1552  162.7698 C.3     1  UNL1        0.2070
     28 O         139.2689  144.5859  164.0861 O.3     1  UNL1       -0.4731
     29 C         139.0686  143.1281  164.3772 C.ar    1  UNL1        0.1680
     30 C         138.3321  142.2622  163.3986 C.ar    1  UNL1        0.0688
     31 C         138.1318  140.8045  163.6897 C.ar    1  UNL1        0.1433
     32 F         137.3953  139.9385  162.7110 F       1  UNL1       -0.2041
     33 C         138.6680  140.2126  164.9594 C.ar    1  UNL1        0.0322
     34 C         139.4046  141.0785  165.9380 C.ar    1  UNL1        0.0351
     35 C         139.6048  142.5362  165.6469 C.ar    1  UNL1        0.1740
     36 F         140.3414  143.4022  166.6255 F       1  UNL1       -0.2010
@<TRIPOS>BOND
     1    23    24    3
     2    24    17    1
     3    17    18   ar
     4    18    19   ar
     5    19    20   ar
     6    20    14    1
     7    14    15    2
     8    14    16    2
     9    14    12    1
    10    12    11    1
    11    11    10    1
    12    10     1    1
    13     1     2    1
    14     2     3    1
    15     3     4    1
    16     4     5    1
    17     5    25    1
    18    25    26    1
    19    26    27    1
    20    27    28    1
    21    28    29    1
    22    29    30   ar
    23    30    31   ar
    24    31    32    1
    25    31    33   ar
    26    33    34   ar
    27    34    35   ar
    28    35    36    1
    29     5     6    1
    30     6     7    1
    31     7     8    1
    32     7     9    1
    33    20    21   ar
    34    21    22   ar
    35    22    17   ar
    36     8     1    1
    37     9     3    1
    38    35    29   ar
    39    12    13    1
@<TRIPOS>MOLECULE
*****
 36 39 0 0 0
SMALL
GASTEIGER

@<TRIPOS>ATOM
      1 N         141.9695  141.0117  159.7533 N.3     1  UNL1       -0.2673
      2 C         140.4827  141.2098  159.7375 C.3     1  UNL1        0.1035
      3 C         139.8443  142.1733  160.6935 C.3     1  UNL1        0.1470
      4 C         139.2059  143.1369  161.6496 C.3     1  UNL1        0.1035
      5 N         140.0543  143.9023  162.6214 N.3     1  UNL1       -0.2684
      6 C         141.5411  143.7042  162.6371 C.3     1  UNL1        0.1035
      7 C         142.1795  142.7407  161.6811 C.3     1  UNL1        0.1470
      8 C         142.8178  141.7771  160.7250 C.3     1  UNL1        0.1035
      9 O         140.6927  142.9387  161.6653 O.3     1  UNL1       -0.3530
     10 C         142.6079  140.0481  158.7972 C.3     1  UNL1        0.0913
     11 C         142.5245  138.5723  159.0522 C.3     1  UNL1        0.1087
     12 N         142.9405  138.0162  160.3818 N.3     1  UNL1       -0.1780
     13 H         143.1917  137.0398  160.2270 H       1  UNL1        0.1488
     14 S         141.9838  138.0393  161.5369 S.O2    1  UNL1        0.0603
     15 O         140.8401  137.8083  160.5942 O.2     1  UNL1       -0.1530
     16 O         143.1275  138.2702  162.4795 O.2     1  UNL1       -0.1530
     17 C         139.1138  138.1085  165.0021 C.ar    1  UNL1        0.0685
     18 C         138.8800  138.9975  163.8168 C.ar    1  UNL1        0.0116
     19 C         139.8367  138.9744  162.6617 C.ar    1  UNL1        0.0206
     20 C         141.0271  138.0623  162.6919 C.ar    1  UNL1        0.1220
     21 C         141.2609  137.1733  163.8773 C.ar    1  UNL1        0.0206
     22 C         140.3042  137.1964  165.0324 C.ar    1  UNL1        0.0116
     23 N         137.2004  138.1547  167.3123 N.1     1  UNL1       -0.1908
     24 C         138.1571  138.1315  166.1572 C.1     1  UNL1        0.1004
     25 C         139.4159  144.8659  163.5774 C.3     1  UNL1        0.0761
     26 C         139.0324  144.4126  164.9550 C.3     1  UNL1        0.0646
     27 C         139.9399  143.4983  165.7234 C.3     1  UNL1        0.2070
     28 O         139.8541  142.0143  165.5230 O.3     1  UNL1       -0.4731
     29 C         140.7646  141.1002  166.2883 C.ar    1  UNL1        0.1680
     30 C         140.4847  140.7984  167.7307 C.ar    1  UNL1        0.0688
     31 C         141.3951  139.8844  168.4959 C.ar    1  UNL1        0.1433
     32 F         141.1153  139.5825  169.9384 F       1  UNL1       -0.2041
     33 C         142.5854  139.2722  167.8188 C.ar    1  UNL1        0.0322
     34 C         142.8652  139.5740  166.3764 C.ar    1  UNL1        0.0351
     35 C         141.9548  140.4880  165.6112 C.ar    1  UNL1        0.1740
     36 F         142.2346  140.7899  164.1687 F       1  UNL1       -0.2010
@<TRIPOS>BOND
     1    23    24    3
     2    24    17    1
     3    17    18   ar
     4    18    19   ar
     5    19    20   ar
     6    20    14    1
     7    14    15    2
     8    14    16    2
     9    14    12    1
    10    12    11    1
    11    11    10    1
    12    10     1    1
    13     1     2    1
    14     2     3    1
    15     3     4    1
    16     4     5    1
    17     5    25    1
    18    25    26    1
    19    26    27    1
    20    27    28    1
    21    28    29    1
    22    29    30   ar
    23    30    31   ar
    24    31    32    1
    25    31    33   ar
    26    33    34   ar
    27    34    35   ar
    28    35    36    1
    29     5     6    1
    30     6     7    1
    31     7     8    1
    32     7     9    1
    33    20    21   ar
    34    21    22   ar
    35    22    17   ar
    36     8     1    1
    37     9     3    1
    38    35    29   ar
    39    12    13    1
