@<TRIPOS>MOLECULE
*****
 35 39 0 0 0
SMALL
GASTEIGER

@<TRIPOS>ATOM
      1 N         142.6802  143.5969  161.3784 N.pl3   1  UNL1       -0.2801
      2 H         143.1199  144.3141  160.8671 H       1  UNL1        0.1552
      3 C         141.6516  143.9375  162.4158 C.ar    1  UNL1        0.2208
      4 N         140.7563  145.1254  162.2225 N.ar    1  UNL1       -0.2111
      5 C         139.7278  145.4660  163.2598 C.ar    1  UNL1        0.1147
      6 C         139.5946  144.6188  164.4904 C.ar    1  UNL1        0.0960
      7 CL        138.5661  144.9594  165.5278 Cl      1  UNL1       -0.0790
      8 C         140.4900  143.4309  164.6837 C.ar    1  UNL1        0.1138
      9 N         141.5184  143.0903  163.6464 N.ar    1  UNL1       -0.2111
     10 C         140.3567  142.5836  165.9144 C.ar    1  UNL1        0.1031
     11 C         141.0066  142.8467  167.2404 C.ar    1  UNL1        0.1196
     12 N         140.6018  141.7502  168.1806 N.ar    1  UNL1       -0.2248
     13 C         139.7017  140.8096  167.4356 C.ar    1  UNL1        0.1479
     14 C         139.0004  139.5506  167.8517 C.ar    1  UNL1        0.0374
     15 C         138.1477  138.8067  166.8671 C.ar    1  UNL1        0.0046
     16 C         137.9962  139.3217  165.4664 C.ar    1  UNL1        0.0191
     17 C         138.6975  140.5807  165.0504 C.ar    1  UNL1        0.0815
     18 N         139.5502  141.3247  166.0350 N.ar    1  UNL1       -0.2874
     19 C         144.1330  141.5098  161.9109 C.ar    1  UNL1        0.1521
     20 C         144.4916  140.0763  161.6526 C.ar    1  UNL1        0.0395
     21 C         143.7559  139.2966  160.6033 C.ar    1  UNL1        0.0177
     22 C         142.6617  139.9503  159.8125 C.ar    1  UNL1        0.0494
     23 C         142.3032  141.3837  160.0709 C.ar    1  UNL1        0.0323
     24 C         143.0388  142.1635  161.1201 C.ar    1  UNL1        0.0861
     25 N         141.9261  139.1705  158.7633 N.pl3   1  UNL1       -0.3040
     26 C         140.4424  139.3312  158.6119 C.3     1  UNL1        0.1123
     27 C         139.7068  138.5515  157.5627 C.3     1  UNL1        0.1148
     28 N         140.4549  137.6110  156.6649 N.am    1  UNL1       -0.2760
     29 C         139.7193  136.8313  155.6157 C.2     1  UNL1        0.2262
     30 C         140.4673  135.8909  154.7179 C.3     1  UNL1        0.0948
     31 O         138.2356  136.9920  155.4642 O.2     1  UNL1       -0.2749
     32 C         141.9386  137.4503  156.8163 C.3     1  UNL1        0.1148
     33 C         142.6741  138.2301  157.8656 C.3     1  UNL1        0.1123
     34 C         145.8468  141.5964  163.8617 C.3     1  UNL1        0.2525
     35 O         144.8686  142.2896  162.9602 O.3     1  UNL1       -0.4702
@<TRIPOS>BOND
     1    34    35    1
     2    35    19    1
     3    19    20   ar
     4    20    21   ar
     5    21    22   ar
     6    22    25    1
     7    25    26    1
     8    26    27    1
     9    27    28    1
    10    28    29   am
    11    29    30    1
    12    29    31    2
    13    28    32    1
    14    32    33    1
    15    22    23   ar
    16    23    24   ar
    17    24     1    1
    18     1     3    1
    19     3     4   ar
    20     4     5   ar
    21     5     6   ar
    22     6     7    1
    23     6     8   ar
    24     8    10    1
    25    10    11   ar
    26    11    12   ar
    27    12    13   ar
    28    13    14   ar
    29    14    15   ar
    30    15    16   ar
    31    16    17   ar
    32    17    18   ar
    33     8     9   ar
    34    24    19   ar
    35     9     3   ar
    36    33    25    1
    37    18    10   ar
    38    18    13   ar
    39     1     2    1
@<TRIPOS>MOLECULE
*****
 35 39 0 0 0
SMALL
GASTEIGER

@<TRIPOS>ATOM
      1 N         143.4083  139.0901  160.6992 N.pl3   1  UNL1       -0.2801
      2 H         144.2918  139.4046  160.9989 H       1  UNL1        0.1552
      3 C         142.3136  138.8648  161.6996 C.ar    1  UNL1        0.2208
      4 N         142.2936  137.6088  162.5193 N.ar    1  UNL1       -0.2111
      5 C         141.1988  137.3834  163.5197 C.ar    1  UNL1        0.1147
      6 C         140.1240  138.4141  163.7002 C.ar    1  UNL1        0.0960
      7 CL        139.0293  138.1888  164.7006 Cl      1  UNL1       -0.0790
      8 C         140.1441  139.6702  162.8804 C.ar    1  UNL1        0.1138
      9 N         141.2388  139.8955  161.8802 N.ar    1  UNL1       -0.2111
     10 C         139.0693  140.7009  163.0610 C.ar    1  UNL1        0.1031
     11 C         137.6971  140.6590  162.4566 C.ar    1  UNL1        0.1196
     12 N         136.9578  141.8866  162.8997 N.ar    1  UNL1       -0.2248
     13 C         137.8731  142.6871  163.7780 C.ar    1  UNL1        0.1479
     14 C         137.6868  143.9887  164.4999 C.ar    1  UNL1        0.0374
     15 C         138.8055  144.5575  165.3216 C.ar    1  UNL1        0.0046
     16 C         140.1105  143.8247  165.4213 C.ar    1  UNL1        0.0191
     17 C         140.2968  142.5231  164.6994 C.ar    1  UNL1        0.0815
     18 N         139.1781  141.9543  163.8777 N.ar    1  UNL1       -0.2874
     19 C         143.1190  139.9835  158.2768 C.ar    1  UNL1        0.1521
     20 C         142.8677  139.7295  156.8199 C.ar    1  UNL1        0.0395
     21 C         142.6546  138.3283  156.3287 C.ar    1  UNL1        0.0177
     22 C         142.6928  137.1811  157.2943 C.ar    1  UNL1        0.0494
     23 C         142.9440  137.4351  158.7511 C.ar    1  UNL1        0.0323
     24 C         143.1571  138.8362  159.2424 C.ar    1  UNL1        0.0861
     25 N         142.4796  135.7799  156.8031 N.pl3   1  UNL1       -0.3040
     26 C         143.2402  134.6445  157.4215 C.3     1  UNL1        0.1123
     27 C         143.0271  133.2434  156.9302 C.3     1  UNL1        0.1148
     28 N         142.0534  132.9776  155.8206 N.am    1  UNL1       -0.2760
     29 C         141.8403  131.5765  155.3294 C.2     1  UNL1        0.2262
     30 C         140.8666  131.3107  154.2198 C.3     1  UNL1        0.0948
     31 O         142.6008  130.4411  155.9478 O.2     1  UNL1       -0.2749
     32 C         141.2928  134.1130  155.2022 C.3     1  UNL1        0.1148
     33 C         141.5059  135.5142  155.6935 C.3     1  UNL1        0.1123
     34 C         142.1616  142.3085  158.9307 C.3     1  UNL1        0.2525
     35 O         143.3321  141.3846  158.7680 O.3     1  UNL1       -0.4702
@<TRIPOS>BOND
     1    34    35    1
     2    35    19    1
     3    19    20   ar
     4    20    21   ar
     5    21    22   ar
     6    22    25    1
     7    25    26    1
     8    26    27    1
     9    27    28    1
    10    28    29   am
    11    29    30    1
    12    29    31    2
    13    28    32    1
    14    32    33    1
    15    22    23   ar
    16    23    24   ar
    17    24     1    1
    18     1     3    1
    19     3     4   ar
    20     4     5   ar
    21     5     6   ar
    22     6     7    1
    23     6     8   ar
    24     8    10    1
    25    10    11   ar
    26    11    12   ar
    27    12    13   ar
    28    13    14   ar
    29    14    15   ar
    30    15    16   ar
    31    16    17   ar
    32    17    18   ar
    33     8     9   ar
    34    24    19   ar
    35     9     3   ar
    36    33    25    1
    37    18    10   ar
    38    18    13   ar
    39     1     2    1
@<TRIPOS>MOLECULE
*****
 35 39 0 0 0
SMALL
GASTEIGER

@<TRIPOS>ATOM
      1 N         141.9848  138.5737  158.4869 N.pl3   1  UNL1       -0.2801
      2 H         141.0666  138.8828  158.3118 H       1  UNL1        0.1552
      3 C         142.6629  138.9297  159.7766 C.ar    1  UNL1        0.2208
      4 N         143.2942  137.8565  160.6131 N.ar    1  UNL1       -0.2111
      5 C         143.9723  138.2125  161.9029 C.ar    1  UNL1        0.1147
      6 C         144.0190  139.6417  162.3561 C.ar    1  UNL1        0.0960
      7 CL        144.6971  139.9976  163.6458 Cl      1  UNL1       -0.0790
      8 C         143.3876  140.7148  161.5195 C.ar    1  UNL1        0.1138
      9 N         142.7096  140.3588  160.2299 N.ar    1  UNL1       -0.2111
     10 C         143.4344  142.1440  161.9728 C.ar    1  UNL1        0.1031
     11 C         144.5781  143.0944  161.7759 C.ar    1  UNL1        0.1196
     12 N         144.1962  144.4114  162.3839 N.ar    1  UNL1       -0.2248
     13 C         142.8166  144.2749  162.9565 C.ar    1  UNL1        0.1479
     14 C         141.9281  145.2456  163.6765 C.ar    1  UNL1        0.0374
     15 C         140.5689  144.8150  164.1424 C.ar    1  UNL1        0.0046
     16 C         140.0980  143.4137  163.8883 C.ar    1  UNL1        0.0191
     17 C         140.9865  142.4430  163.1683 C.ar    1  UNL1        0.0815
     18 N         142.3457  142.8736  162.7024 N.ar    1  UNL1       -0.2874
     19 C         143.4876  138.4168  156.3734 C.ar    1  UNL1        0.1521
     20 C         144.2084  137.5896  155.3504 C.ar    1  UNL1        0.0395
     21 C         144.1470  136.0924  155.4179 C.ar    1  UNL1        0.0177
     22 C         143.3648  135.4223  156.5084 C.ar    1  UNL1        0.0494
     23 C         142.6441  136.2494  157.5314 C.ar    1  UNL1        0.0323
     24 C         142.7055  137.7466  157.4639 C.ar    1  UNL1        0.0861
     25 N         143.3034  133.9250  156.5760 N.pl3   1  UNL1       -0.3040
     26 C         142.2491  133.1824  155.8099 C.3     1  UNL1        0.1123
     27 C         142.1877  131.6851  155.8774 C.3     1  UNL1        0.1148
     28 N         143.1806  130.9307  156.7111 N.am    1  UNL1       -0.2760
     29 C         143.1192  129.4334  156.7787 C.2     1  UNL1        0.2262
     30 C         144.1120  128.6789  157.6123 C.3     1  UNL1        0.0948
     31 O         142.0649  128.6907  156.0126 O.2     1  UNL1       -0.2749
     32 C         144.2349  131.6734  157.4772 C.3     1  UNL1        0.1148
     33 C         144.2962  133.1706  157.4096 C.3     1  UNL1        0.1123
     34 C         144.6746  140.6492  156.9711 C.3     1  UNL1        0.2525
     35 O         143.5491  139.9140  156.3059 O.3     1  UNL1       -0.4702
@<TRIPOS>BOND
     1    34    35    1
     2    35    19    1
     3    19    20   ar
     4    20    21   ar
     5    21    22   ar
     6    22    25    1
     7    25    26    1
     8    26    27    1
     9    27    28    1
    10    28    29   am
    11    29    30    1
    12    29    31    2
    13    28    32    1
    14    32    33    1
    15    22    23   ar
    16    23    24   ar
    17    24     1    1
    18     1     3    1
    19     3     4   ar
    20     4     5   ar
    21     5     6   ar
    22     6     7    1
    23     6     8   ar
    24     8    10    1
    25    10    11   ar
    26    11    12   ar
    27    12    13   ar
    28    13    14   ar
    29    14    15   ar
    30    15    16   ar
    31    16    17   ar
    32    17    18   ar
    33     8     9   ar
    34    24    19   ar
    35     9     3   ar
    36    33    25    1
    37    18    10   ar
    38    18    13   ar
    39     1     2    1
@<TRIPOS>MOLECULE
*****
 35 39 0 0 0
SMALL
GASTEIGER

@<TRIPOS>ATOM
      1 N         140.6528  143.6397  160.6515 N.pl3   1  UNL1       -0.2801
      2 H         140.4876  144.4307  160.0892 H       1  UNL1        0.1552
      3 C         141.6253  143.7191  161.7907 C.ar    1  UNL1        0.2208
      4 N         142.8257  144.6130  161.6910 N.ar    1  UNL1       -0.2111
      5 C         143.7983  144.6924  162.8302 C.ar    1  UNL1        0.1147
      6 C         143.5705  143.8779  164.0691 C.ar    1  UNL1        0.0960
      7 CL        144.5431  143.9574  165.2083 Cl      1  UNL1       -0.0790
      8 C         142.3700  142.9840  164.1687 C.ar    1  UNL1        0.1138
      9 N         141.3975  142.9046  163.0296 N.ar    1  UNL1       -0.2111
     10 C         142.1422  142.1695  165.4076 C.ar    1  UNL1        0.1031
     11 C         141.2659  142.5500  166.5641 C.ar    1  UNL1        0.1196
     12 N         141.3328  141.4472  167.5787 N.ar    1  UNL1       -0.2248
     13 C         142.2504  140.3853  167.0492 C.ar    1  UNL1        0.1479
     14 C         142.6950  139.0694  167.6156 C.ar    1  UNL1        0.0374
     15 C         143.6399  138.2000  166.8402 C.ar    1  UNL1        0.0046
     16 C         144.1402  138.6464  165.4984 C.ar    1  UNL1        0.0191
     17 C         143.6955  139.9622  164.9320 C.ar    1  UNL1        0.0815
     18 N         142.7506  140.8316  165.7074 N.ar    1  UNL1       -0.2874
     19 C         138.5433  142.1428  160.8955 C.ar    1  UNL1        0.1521
     20 C         137.8223  140.8581  160.6130 C.ar    1  UNL1        0.0395
     21 C         138.4898  139.7856  159.8040 C.ar    1  UNL1        0.0177
     22 C         139.8782  139.9979  159.2775 C.ar    1  UNL1        0.0494
     23 C         140.5992  141.2826  159.5601 C.ar    1  UNL1        0.0323
     24 C         139.9317  142.3551  160.3691 C.ar    1  UNL1        0.0861
     25 N         140.5457  138.9255  158.4686 N.pl3   1  UNL1       -0.3040
     26 C         141.9687  138.5468  158.7540 C.3     1  UNL1        0.1123
     27 C         142.6362  137.4744  157.9451 C.3     1  UNL1        0.1148
     28 N         141.8805  136.7807  156.8506 N.am    1  UNL1       -0.2760
     29 C         142.5480  135.7083  156.0416 C.2     1  UNL1        0.2262
     30 C         141.7924  135.0146  154.9472 C.3     1  UNL1        0.0948
     31 O         143.9710  135.3297  156.3271 O.2     1  UNL1       -0.2749
     32 C         140.4575  137.1594  156.5651 C.3     1  UNL1        0.1148
     33 C         139.7900  138.2319  157.3742 C.3     1  UNL1        0.1123
     34 C         137.7415  143.0598  163.1903 C.3     1  UNL1        0.2525
     35 O         137.8758  143.2152  161.7045 O.3     1  UNL1       -0.4702
@<TRIPOS>BOND
     1    34    35    1
     2    35    19    1
     3    19    20   ar
     4    20    21   ar
     5    21    22   ar
     6    22    25    1
     7    25    26    1
     8    26    27    1
     9    27    28    1
    10    28    29   am
    11    29    30    1
    12    29    31    2
    13    28    32    1
    14    32    33    1
    15    22    23   ar
    16    23    24   ar
    17    24     1    1
    18     1     3    1
    19     3     4   ar
    20     4     5   ar
    21     5     6   ar
    22     6     7    1
    23     6     8   ar
    24     8    10    1
    25    10    11   ar
    26    11    12   ar
    27    12    13   ar
    28    13    14   ar
    29    14    15   ar
    30    15    16   ar
    31    16    17   ar
    32    17    18   ar
    33     8     9   ar
    34    24    19   ar
    35     9     3   ar
    36    33    25    1
    37    18    10   ar
    38    18    13   ar
    39     1     2    1
@<TRIPOS>MOLECULE
*****
 35 39 0 0 0
SMALL
GASTEIGER

@<TRIPOS>ATOM
      1 N         137.6698  142.1114  162.4892 N.pl3   1  UNL1       -0.2801
      2 H         136.6893  142.1906  162.4495 H       1  UNL1        0.1552
      3 C         138.3001  140.8569  163.0174 C.ar    1  UNL1        0.2208
      4 N         137.9567  139.5305  162.4069 N.ar    1  UNL1       -0.2111
      5 C         138.5870  138.2760  162.9351 C.ar    1  UNL1        0.1147
      6 C         139.5607  138.3479  164.0738 C.ar    1  UNL1        0.0960
      7 CL        140.1910  137.0935  164.6020 Cl      1  UNL1       -0.0790
      8 C         139.9042  139.6744  164.6843 C.ar    1  UNL1        0.1138
      9 N         139.2739  140.9288  164.1561 N.ar    1  UNL1       -0.2111
     10 C         140.8780  139.7463  165.8230 C.ar    1  UNL1        0.1031
     11 C         142.3726  139.6887  165.7099 C.ar    1  UNL1        0.1196
     12 N         142.9465  139.7952  167.0917 N.ar    1  UNL1       -0.2248
     13 C         141.8065  139.9187  168.0588 C.ar    1  UNL1        0.1479
     14 C         141.7674  140.0548  169.5521 C.ar    1  UNL1        0.0374
     15 C         140.4498  140.1607  170.2613 C.ar    1  UNL1        0.0046
     16 C         139.1714  140.1305  169.4772 C.ar    1  UNL1        0.0191
     17 C         139.2106  139.9944  167.9839 C.ar    1  UNL1        0.0815
     18 N         140.5281  139.8885  167.2747 N.ar    1  UNL1       -0.2874
     19 C         138.6684  144.4809  162.8609 C.ar    1  UNL1        0.1521
     20 C         139.5320  145.6147  162.3931 C.ar    1  UNL1        0.0395
     21 C         140.2605  145.5127  161.0858 C.ar    1  UNL1        0.0177
     22 C         140.1255  144.2769  160.2464 C.ar    1  UNL1        0.0494
     23 C         139.2619  143.1432  160.7142 C.ar    1  UNL1        0.0323
     24 C         138.5334  143.2451  162.0215 C.ar    1  UNL1        0.0861
     25 N         140.8540  144.1749  158.9392 N.pl3   1  UNL1       -0.3040
     26 C         141.1696  145.4157  158.1576 C.3     1  UNL1        0.1123
     27 C         141.8981  145.3137  156.8504 C.3     1  UNL1        0.1148
     28 N         142.3111  143.9707  156.3248 N.am    1  UNL1       -0.2760
     29 C         143.0396  143.8687  155.0176 C.2     1  UNL1        0.2262
     30 C         143.4525  142.5259  154.4919 C.3     1  UNL1        0.0948
     31 O         143.3552  145.1095  154.2360 O.2     1  UNL1       -0.2749
     32 C         141.9955  142.7300  157.1064 C.3     1  UNL1        0.1148
     33 C         141.2669  142.8321  158.4136 C.3     1  UNL1        0.1123
     34 C         138.7013  144.8526  165.4321 C.3     1  UNL1        0.2525
     35 O         137.9399  144.5829  164.1681 O.3     1  UNL1       -0.4702
@<TRIPOS>BOND
     1    34    35    1
     2    35    19    1
     3    19    20   ar
     4    20    21   ar
     5    21    22   ar
     6    22    25    1
     7    25    26    1
     8    26    27    1
     9    27    28    1
    10    28    29   am
    11    29    30    1
    12    29    31    2
    13    28    32    1
    14    32    33    1
    15    22    23   ar
    16    23    24   ar
    17    24     1    1
    18     1     3    1
    19     3     4   ar
    20     4     5   ar
    21     5     6   ar
    22     6     7    1
    23     6     8   ar
    24     8    10    1
    25    10    11   ar
    26    11    12   ar
    27    12    13   ar
    28    13    14   ar
    29    14    15   ar
    30    15    16   ar
    31    16    17   ar
    32    17    18   ar
    33     8     9   ar
    34    24    19   ar
    35     9     3   ar
    36    33    25    1
    37    18    10   ar
    38    18    13   ar
    39     1     2    1
@<TRIPOS>MOLECULE
*****
 35 39 0 0 0
SMALL
GASTEIGER

@<TRIPOS>ATOM
      1 N         142.2873  144.9067  162.1589 N.pl3   1  UNL1       -0.2801
      2 H         142.4620  145.8625  162.3174 H       1  UNL1        0.1552
      3 C         141.4178  144.4833  161.0123 C.ar    1  UNL1        0.2208
      4 N         140.1996  143.6451  161.2645 N.ar    1  UNL1       -0.2111
      5 C         139.3301  143.2217  160.1179 C.ar    1  UNL1        0.1147
      6 C         139.6787  143.6365  158.7192 C.ar    1  UNL1        0.0960
      7 CL        138.8092  143.2131  157.5726 Cl      1  UNL1       -0.0790
      8 C         140.8969  144.4747  158.4670 C.ar    1  UNL1        0.1138
      9 N         141.7664  144.8980  159.6136 N.ar    1  UNL1       -0.2111
     10 C         141.2456  144.8894  157.0683 C.ar    1  UNL1        0.1031
     11 C         142.3212  144.2885  156.2127 C.ar    1  UNL1        0.1196
     12 N         142.3202  145.0056  154.8952 N.ar    1  UNL1       -0.2248
     13 C         141.2439  146.0497  154.9366 C.ar    1  UNL1        0.1479
     14 C         140.7829  147.0565  153.9248 C.ar    1  UNL1        0.0374
     15 C         139.6577  147.9915  154.2560 C.ar    1  UNL1        0.0046
     16 C         138.9936  147.9197  155.5990 C.ar    1  UNL1        0.0191
     17 C         139.4546  146.9129  156.6108 C.ar    1  UNL1        0.0815
     18 N         140.5798  145.9779  156.2796 N.ar    1  UNL1       -0.2874
     19 C         144.1894  143.2202  162.6952 C.ar    1  UNL1        0.1521
     20 C         144.7928  142.1873  163.6003 C.ar    1  UNL1        0.0395
     21 C         144.0975  141.8081  164.8742 C.ar    1  UNL1        0.0177
     22 C         142.7987  142.4618  165.2430 C.ar    1  UNL1        0.0494
     23 C         142.1954  143.4947  164.3378 C.ar    1  UNL1        0.0323
     24 C         142.8907  143.8739  163.0639 C.ar    1  UNL1        0.0861
     25 N         142.1034  142.0827  166.5168 N.pl3   1  UNL1       -0.3040
     26 C         142.7841  142.2987  167.8359 C.3     1  UNL1        0.1123
     27 C         142.0887  141.9196  169.1097 C.3     1  UNL1        0.1148
     28 N         140.7125  141.3245  169.0644 N.am    1  UNL1       -0.2760
     29 C         140.0172  140.9453  170.3383 C.2     1  UNL1        0.2262
     30 C         138.6410  140.3502  170.2931 C.3     1  UNL1        0.0948
     31 O         140.6979  141.1613  171.6574 O.2     1  UNL1       -0.2749
     32 C         140.0318  141.1084  167.7454 C.3     1  UNL1        0.1148
     33 C         140.7273  141.4876  166.4715 C.3     1  UNL1        0.1123
     34 C         144.8123  142.6924  160.2287 C.3     1  UNL1        0.2525
     35 O         144.8848  143.5993  161.4213 O.3     1  UNL1       -0.4702
@<TRIPOS>BOND
     1    34    35    1
     2    35    19    1
     3    19    20   ar
     4    20    21   ar
     5    21    22   ar
     6    22    25    1
     7    25    26    1
     8    26    27    1
     9    27    28    1
    10    28    29   am
    11    29    30    1
    12    29    31    2
    13    28    32    1
    14    32    33    1
    15    22    23   ar
    16    23    24   ar
    17    24     1    1
    18     1     3    1
    19     3     4   ar
    20     4     5   ar
    21     5     6   ar
    22     6     7    1
    23     6     8   ar
    24     8    10    1
    25    10    11   ar
    26    11    12   ar
    27    12    13   ar
    28    13    14   ar
    29    14    15   ar
    30    15    16   ar
    31    16    17   ar
    32    17    18   ar
    33     8     9   ar
    34    24    19   ar
    35     9     3   ar
    36    33    25    1
    37    18    10   ar
    38    18    13   ar
    39     1     2    1
@<TRIPOS>MOLECULE
*****
 35 39 0 0 0
SMALL
GASTEIGER

@<TRIPOS>ATOM
      1 N         143.0217  137.8074  162.0321 N.pl3   1  UNL1       -0.2801
      2 H         143.8460  137.4196  162.4054 H       1  UNL1        0.1552
      3 C         141.8225  138.0078  162.9106 C.ar    1  UNL1        0.2208
      4 N         141.4933  137.0000  163.9717 N.ar    1  UNL1       -0.2111
      5 C         140.2941  137.2004  164.8502 C.ar    1  UNL1        0.1147
      6 C         139.4242  138.4086  164.6676 C.ar    1  UNL1        0.0960
      7 CL        138.2250  138.6090  165.5461 Cl      1  UNL1       -0.0790
      8 C         139.7534  139.4165  163.6065 C.ar    1  UNL1        0.1138
      9 N         140.9525  139.2161  162.7280 N.ar    1  UNL1       -0.2111
     10 C         138.8834  140.6247  163.4239 C.ar    1  UNL1        0.1031
     11 C         137.7520  140.7571  162.4480 C.ar    1  UNL1        0.1196
     12 N         137.1614  142.1269  162.6061 N.ar    1  UNL1       -0.2248
     13 C         137.9278  142.8410  163.6797 C.ar    1  UNL1        0.1479
     14 C         137.7941  144.2167  164.2624 C.ar    1  UNL1        0.0374
     15 C         138.7247  144.6640  165.3505 C.ar    1  UNL1        0.0046
     16 C         139.7890  143.7357  165.8559 C.ar    1  UNL1        0.0191
     17 C         139.9227  142.3600  165.2733 C.ar    1  UNL1        0.0815
     18 N         138.9921  141.9126  164.1851 N.ar    1  UNL1       -0.2874
     19 C         143.1069  139.6382  160.1907 C.ar    1  UNL1        0.1521
     20 C         143.0502  140.0287  158.7434 C.ar    1  UNL1        0.0395
     21 C         142.8517  138.9789  157.6906 C.ar    1  UNL1        0.0177
     22 C         142.7098  137.5387  158.0849 C.ar    1  UNL1        0.0494
     23 C         142.7665  137.1482  159.5321 C.ar    1  UNL1        0.0323
     24 C         142.9650  138.1980  160.5850 C.ar    1  UNL1        0.0861
     25 N         142.5113  136.4888  157.0320 N.pl3   1  UNL1       -0.3040
     26 C         141.3798  136.6112  156.0549 C.3     1  UNL1        0.1123
     27 C         141.1813  135.5614  155.0020 C.3     1  UNL1        0.1148
     28 N         142.1143  134.3892  154.9264 N.am    1  UNL1       -0.2760
     29 C         141.9157  133.3394  153.8736 C.2     1  UNL1        0.2262
     30 C         142.8486  132.1672  153.7979 C.3     1  UNL1        0.0948
     31 O         140.7843  133.4617  152.8964 O.2     1  UNL1       -0.2749
     32 C         143.2457  134.2668  155.9036 C.3     1  UNL1        0.1148
     33 C         143.4442  135.3167  156.9564 C.3     1  UNL1        0.1123
     34 C         144.6545  140.8738  161.8725 C.3     1  UNL1        0.2525
     35 O         143.3055  140.6880  161.2435 O.3     1  UNL1       -0.4702
@<TRIPOS>BOND
     1    34    35    1
     2    35    19    1
     3    19    20   ar
     4    20    21   ar
     5    21    22   ar
     6    22    25    1
     7    25    26    1
     8    26    27    1
     9    27    28    1
    10    28    29   am
    11    29    30    1
    12    29    31    2
    13    28    32    1
    14    32    33    1
    15    22    23   ar
    16    23    24   ar
    17    24     1    1
    18     1     3    1
    19     3     4   ar
    20     4     5   ar
    21     5     6   ar
    22     6     7    1
    23     6     8   ar
    24     8    10    1
    25    10    11   ar
    26    11    12   ar
    27    12    13   ar
    28    13    14   ar
    29    14    15   ar
    30    15    16   ar
    31    16    17   ar
    32    17    18   ar
    33     8     9   ar
    34    24    19   ar
    35     9     3   ar
    36    33    25    1
    37    18    10   ar
    38    18    13   ar
    39     1     2    1
@<TRIPOS>MOLECULE
*****
 35 39 0 0 0
SMALL
GASTEIGER

@<TRIPOS>ATOM
      1 N         140.8538  143.5493  160.7111 N.pl3   1  UNL1       -0.2801
      2 H         140.7387  144.3633  160.1693 H       1  UNL1        0.1552
      3 C         141.8000  143.5507  161.8750 C.ar    1  UNL1        0.2208
      4 N         142.8318  144.6322  162.0015 N.ar    1  UNL1       -0.2111
      5 C         143.7779  144.6336  163.1654 C.ar    1  UNL1        0.1147
      6 C         143.6924  143.5535  164.2028 C.ar    1  UNL1        0.0960
      7 CL        144.6386  143.5549  165.3667 Cl      1  UNL1       -0.0790
      8 C         142.6606  142.4720  164.0763 C.ar    1  UNL1        0.1138
      9 N         141.7145  142.4707  162.9124 N.ar    1  UNL1       -0.2111
     10 C         142.5751  141.3920  165.1137 C.ar    1  UNL1        0.1031
     11 C         143.1986  140.0307  165.0227 C.ar    1  UNL1        0.1196
     12 N         142.8600  139.2810  166.2769 N.ar    1  UNL1       -0.2248
     13 C         142.0271  140.1789  167.1431 C.ar    1  UNL1        0.1479
     14 C         141.4063  139.9770  168.4936 C.ar    1  UNL1        0.0374
     15 C         140.6095  141.0799  169.1251 C.ar    1  UNL1        0.0046
     16 C         140.4334  142.3845  168.4062 C.ar    1  UNL1        0.0191
     17 C         141.0542  142.5864  167.0557 C.ar    1  UNL1        0.0815
     18 N         141.8511  141.4836  166.4242 N.ar    1  UNL1       -0.2874
     19 C         138.6657  142.1545  160.8389 C.ar    1  UNL1        0.1521
     20 C         137.8949  140.9129  160.5003 C.ar    1  UNL1        0.0395
     21 C         138.5415  139.8248  159.6954 C.ar    1  UNL1        0.0177
     22 C         139.9589  139.9782  159.2290 C.ar    1  UNL1        0.0494
     23 C         140.7296  141.2197  159.5676 C.ar    1  UNL1        0.0323
     24 C         140.0830  142.3079  160.3725 C.ar    1  UNL1        0.0861
     25 N         140.6056  138.8901  158.4241 N.pl3   1  UNL1       -0.3040
     26 C         142.0246  138.4924  158.7041 C.3     1  UNL1        0.1123
     27 C         142.6712  137.4043  157.8992 C.3     1  UNL1        0.1148
     28 N         141.8988  136.7139  156.8143 N.am    1  UNL1       -0.2760
     29 C         142.5455  135.6258  156.0094 C.2     1  UNL1        0.2262
     30 C         141.7732  134.9354  154.9245 C.3     1  UNL1        0.0948
     31 O         143.9644  135.2282  156.2893 O.2     1  UNL1       -0.2749
     32 C         140.4798  137.1116  156.5344 C.3     1  UNL1        0.1148
     33 C         139.8332  138.1998  157.3393 C.3     1  UNL1        0.1123
     34 C         137.9676  143.1397  163.1394 C.3     1  UNL1        0.2525
     35 O         138.0190  143.2426  161.6438 O.3     1  UNL1       -0.4702
@<TRIPOS>BOND
     1    34    35    1
     2    35    19    1
     3    19    20   ar
     4    20    21   ar
     5    21    22   ar
     6    22    25    1
     7    25    26    1
     8    26    27    1
     9    27    28    1
    10    28    29   am
    11    29    30    1
    12    29    31    2
    13    28    32    1
    14    32    33    1
    15    22    23   ar
    16    23    24   ar
    17    24     1    1
    18     1     3    1
    19     3     4   ar
    20     4     5   ar
    21     5     6   ar
    22     6     7    1
    23     6     8   ar
    24     8    10    1
    25    10    11   ar
    26    11    12   ar
    27    12    13   ar
    28    13    14   ar
    29    14    15   ar
    30    15    16   ar
    31    16    17   ar
    32    17    18   ar
    33     8     9   ar
    34    24    19   ar
    35     9     3   ar
    36    33    25    1
    37    18    10   ar
    38    18    13   ar
    39     1     2    1
@<TRIPOS>MOLECULE
*****
 35 39 0 0 0
SMALL
GASTEIGER

@<TRIPOS>ATOM
      1 N         144.4427  140.5085  161.8060 N.pl3   1  UNL1       -0.2801
      2 H         145.3832  140.2665  161.6444 H       1  UNL1        0.1552
      3 C         143.7914  141.5789  160.9814 C.ar    1  UNL1        0.2208
      4 N         144.3188  141.8972  159.6138 N.ar    1  UNL1       -0.2111
      5 C         143.6675  142.9676  158.7892 C.ar    1  UNL1        0.1147
      6 C         142.4888  143.7197  159.3322 C.ar    1  UNL1        0.0960
      7 CL        141.8375  144.7901  158.5076 Cl      1  UNL1       -0.0790
      8 C         141.9613  143.4014  160.7000 C.ar    1  UNL1        0.1138
      9 N         142.6127  142.3310  161.5245 N.ar    1  UNL1       -0.2111
     10 C         140.7826  144.1535  161.2430 C.ar    1  UNL1        0.1031
     11 C         140.4049  145.5649  160.9035 C.ar    1  UNL1        0.1196
     12 N         139.1635  145.9100  161.6716 N.ar    1  UNL1       -0.2248
     13 C         138.7741  144.7119  162.4857 C.ar    1  UNL1        0.1479
     14 C         137.6376  144.4692  163.4341 C.ar    1  UNL1        0.0374
     15 C         137.5017  143.1409  164.1176 C.ar    1  UNL1        0.0046
     16 C         138.5024  142.0553  163.8527 C.ar    1  UNL1        0.0191
     17 C         139.6389  142.2980  162.9044 C.ar    1  UNL1        0.0815
     18 N         139.7747  143.6263  162.2209 N.ar    1  UNL1       -0.2874
     19 C         143.2308  138.3833  162.6806 C.ar    1  UNL1        0.1521
     20 C         142.4491  137.6816  163.7515 C.ar    1  UNL1        0.0395
     21 C         142.0979  138.4034  165.0187 C.ar    1  UNL1        0.0177
     22 C         142.5283  139.8269  165.2149 C.ar    1  UNL1        0.0494
     23 C         143.3099  140.5285  164.1440 C.ar    1  UNL1        0.0323
     24 C         143.6612  139.8068  162.8768 C.ar    1  UNL1        0.0861
     25 N         142.1771  140.5487  166.4821 N.pl3   1  UNL1       -0.3040
     26 C         142.6378  140.0105  167.8042 C.3     1  UNL1        0.1123
     27 C         142.2866  140.7323  169.0713 C.3     1  UNL1        0.1148
     28 N         141.4746  141.9924  169.0162 N.am    1  UNL1       -0.2760
     29 C         141.1234  142.7142  170.2834 C.2     1  UNL1        0.2262
     30 C         140.3114  143.9742  170.2284 C.3     1  UNL1        0.0948
     31 O         141.5842  142.1760  171.6055 O.2     1  UNL1       -0.2749
     32 C         141.0138  142.5306  167.6941 C.3     1  UNL1        0.1148
     33 C         141.3651  141.8087  166.4270 C.3     1  UNL1        0.1123
     34 C         142.7176  137.8169  160.1975 C.3     1  UNL1        0.2525
     35 O         143.5820  137.6615  161.4134 O.3     1  UNL1       -0.4702
@<TRIPOS>BOND
     1    34    35    1
     2    35    19    1
     3    19    20   ar
     4    20    21   ar
     5    21    22   ar
     6    22    25    1
     7    25    26    1
     8    26    27    1
     9    27    28    1
    10    28    29   am
    11    29    30    1
    12    29    31    2
    13    28    32    1
    14    32    33    1
    15    22    23   ar
    16    23    24   ar
    17    24     1    1
    18     1     3    1
    19     3     4   ar
    20     4     5   ar
    21     5     6   ar
    22     6     7    1
    23     6     8   ar
    24     8    10    1
    25    10    11   ar
    26    11    12   ar
    27    12    13   ar
    28    13    14   ar
    29    14    15   ar
    30    15    16   ar
    31    16    17   ar
    32    17    18   ar
    33     8     9   ar
    34    24    19   ar
    35     9     3   ar
    36    33    25    1
    37    18    10   ar
    38    18    13   ar
    39     1     2    1
