@<TRIPOS>MOLECULE
*****
 43 46 0 0 0
SMALL
GASTEIGER

@<TRIPOS>ATOM
      1 C         142.4649  140.6360  168.2216 C.3     1  UNL1        0.0781
      2 C         142.8050  142.0963  168.1788 C.3     1  UNL1        0.0372
      3 C         143.4060  142.6904  166.9395 C.3     1  UNL1        0.0738
      4 N         143.6669  141.8243  165.7430 N.3     1  UNL1       -0.2725
      5 C         143.3268  140.3639  165.7858 C.3     1  UNL1        0.0738
      6 C         142.7258  139.7698  167.0250 C.3     1  UNL1        0.0372
      7 N         141.8639  140.0419  169.4609 N.am    1  UNL1       -0.2808
      8 C         140.3968  140.1977  169.7319 C.2     1  UNL1        0.2300
      9 O         139.7958  139.6036  170.9712 O.2     1  UNL1       -0.2745
     10 C         143.0609  137.8506  170.1786 C.3     1  UNL1        0.0233
     11 C         142.7300  139.2920  170.4291 C.3     1  UNL1        0.0934
     12 C         139.5308  140.9476  168.7636 C.3     1  UNL1        0.1116
     13 C         139.2827  140.3914  167.3928 C.ar    1  UNL1       -0.0130
     14 C         139.6380  141.1994  166.1800 C.ar    1  UNL1       -0.0025
     15 C         139.3899  140.6431  164.8092 C.ar    1  UNL1        0.0180
     16 C         138.7866  139.2789  164.6513 C.ar    1  UNL1        0.1057
     17 C         138.4314  138.4709  165.8641 C.ar    1  UNL1        0.0180
     18 C         138.6794  139.0272  167.2348 C.ar    1  UNL1       -0.0025
     19 S         138.5386  138.7227  163.2804 S.O2    1  UNL1        0.0104
     20 C         138.2906  138.1664  161.9097 C.3     1  UNL1        0.1816
     21 O         139.2832  137.4748  163.6521 O.2     1  UNL1       -0.1686
     22 O         137.7939  139.9706  162.9087 O.2     1  UNL1       -0.1686
     23 C         144.2679  142.4184  164.5038 C.3     1  UNL1        0.0738
     24 C         143.5571  143.5242  163.7814 C.3     1  UNL1        0.0378
     25 C         142.5123  143.1996  162.7552 C.3     1  UNL1        0.0817
     26 C         141.0694  143.5016  163.0324 C.ar    1  UNL1       -0.0033
     27 C         140.6857  144.2575  164.2699 C.ar    1  UNL1        0.0268
     28 C         139.2428  144.5596  164.5471 C.ar    1  UNL1        0.1421
     29 F         138.8592  145.3154  165.7846 F       1  UNL1       -0.2041
     30 C         138.1836  144.1057  163.5869 C.ar    1  UNL1        0.0592
     31 C         138.5673  143.3498  162.3494 C.ar    1  UNL1        0.1421
     32 F         137.5081  142.8959  161.3891 F       1  UNL1       -0.2041
     33 C         140.0102  143.0478  162.0721 C.ar    1  UNL1        0.0268
     34 N         142.9104  142.5730  161.4518 N.3     1  UNL1       -0.2678
     35 C         143.1139  143.4310  160.2384 C.3     1  UNL1        0.0917
     36 C         143.5120  142.8043  158.9349 C.3     1  UNL1        0.1128
     37 N         143.7065  141.3198  158.8450 N.3     1  UNL1       -0.1565
     38 C         143.5030  140.4618  160.0584 C.3     1  UNL1        0.1128
     39 C         143.1049  141.0884  161.3618 C.3     1  UNL1        0.0917
     40 S         144.1046  140.6931  157.5415 S.O2    1  UNL1        0.0457
     41 C         144.5027  140.0665  156.2382 C.3     1  UNL1        0.1960
     42 O         143.8377  139.3326  158.1141 O.2     1  UNL1       -0.1572
     43 O         144.3716  142.0536  156.9690 O.2     1  UNL1       -0.1572
@<TRIPOS>BOND
     1    10    11    1
     2    11     7    1
     3     7     8   am
     4     8     9    2
     5     8    12    1
     6    12    13    1
     7    13    14   ar
     8    14    15   ar
     9    15    16   ar
    10    16    19    1
    11    19    20    1
    12    19    21    2
    13    19    22    2
    14    16    17   ar
    15    17    18   ar
    16     7     1    1
    17     1     2    1
    18     2     3    1
    19     3     4    1
    20     4    23    1
    21    23    24    1
    22    25    24    1
    23    25    26    1
    24    26    27   ar
    25    27    28   ar
    26    28    29    1
    27    28    30   ar
    28    30    31   ar
    29    31    32    1
    30    31    33   ar
    31    25    34    1
    32    34    35    1
    33    35    36    1
    34    36    37    1
    35    37    40    1
    36    40    41    1
    37    40    42    2
    38    40    43    2
    39    37    38    1
    40    38    39    1
    41     4     5    1
    42     5     6    1
    43    18    13   ar
    44     6     1    1
    45    33    26   ar
    46    39    34    1
@<TRIPOS>MOLECULE
*****
 43 46 0 0 0
SMALL
GASTEIGER

@<TRIPOS>ATOM
      1 C         142.7122  140.5451  166.9031 C.3     1  UNL1        0.0781
      2 C         143.0216  139.1320  166.5065 C.3     1  UNL1        0.0372
      3 C         143.6615  138.8484  165.1798 C.3     1  UNL1        0.0738
      4 N         143.9918  139.9778  164.2496 N.3     1  UNL1       -0.2725
      5 C         143.6823  141.3910  164.6462 C.3     1  UNL1        0.0738
      6 C         143.0425  141.6746  165.9730 C.3     1  UNL1        0.0372
      7 N         142.0724  140.8287  168.2298 N.am    1  UNL1       -0.2808
      8 C         140.5786  140.9113  168.3398 C.2     1  UNL1        0.2300
      9 O         139.9388  141.1949  169.6665 O.2     1  UNL1       -0.2745
     10 C         143.6913  142.3079  169.6229 C.3     1  UNL1        0.0233
     11 C         142.9262  141.0298  169.4465 C.3     1  UNL1        0.0934
     12 C         139.7248  140.7102  167.1231 C.3     1  UNL1        0.1116
     13 C         139.6805  141.7630  166.0555 C.ar    1  UNL1       -0.0130
     14 C         139.4939  141.3686  164.6204 C.ar    1  UNL1       -0.0025
     15 C         139.4497  142.4214  163.5529 C.ar    1  UNL1        0.0180
     16 C         139.5919  143.8687  163.9205 C.ar    1  UNL1        0.1057
     17 C         139.7785  144.2631  165.3556 C.ar    1  UNL1        0.0180
     18 C         139.8228  143.2103  166.4231 C.ar    1  UNL1       -0.0025
     19 S         139.5477  144.9215  162.8530 S.O2    1  UNL1        0.0104
     20 C         139.5033  145.9743  161.7854 C.3     1  UNL1        0.1816
     21 O         138.1363  144.5318  162.5273 O.2     1  UNL1       -0.1686
     22 O         140.9590  145.3112  163.1786 O.2     1  UNL1       -0.1686
     23 C         144.6316  139.6942  162.9229 C.3     1  UNL1        0.0738
     24 C         143.8089  139.1436  161.7959 C.3     1  UNL1        0.0378
     25 C         142.4824  139.7605  161.4647 C.3     1  UNL1        0.0817
     26 C         141.2182  139.1482  161.9909 C.ar    1  UNL1       -0.0033
     27 C         141.2531  138.3037  163.2301 C.ar    1  UNL1        0.0268
     28 C         139.9890  137.6914  163.7563 C.ar    1  UNL1        0.1421
     29 F         140.0239  136.8469  164.9955 F       1  UNL1       -0.2041
     30 C         138.6898  137.9236  163.0434 C.ar    1  UNL1        0.0592
     31 C         138.6549  138.7681  161.8042 C.ar    1  UNL1        0.1421
     32 F         137.3557  139.0003  161.0912 F       1  UNL1       -0.2041
     33 C         139.9191  139.3804  161.2779 C.ar    1  UNL1        0.0268
     34 N         142.4200  140.9896  160.6072 N.3     1  UNL1       -0.2678
     35 C         142.3860  140.8609  159.1131 C.3     1  UNL1        0.0917
     36 C         142.3236  142.0901  158.2557 C.3     1  UNL1        0.1128
     37 N         142.2952  143.4480  158.8923 N.3     1  UNL1       -0.1565
     38 C         142.3292  143.5767  160.3864 C.3     1  UNL1        0.1128
     39 C         142.3916  142.3476  161.2438 C.3     1  UNL1        0.0917
     40 S         142.2328  144.6772  158.0348 S.O2    1  UNL1        0.0457
     41 C         142.1704  145.9064  157.1774 C.3     1  UNL1        0.1960
     42 O         142.6604  143.8693  156.8455 O.2     1  UNL1       -0.1572
     43 O         141.8053  145.4851  159.2241 O.2     1  UNL1       -0.1572
@<TRIPOS>BOND
     1    10    11    1
     2    11     7    1
     3     7     8   am
     4     8     9    2
     5     8    12    1
     6    12    13    1
     7    13    14   ar
     8    14    15   ar
     9    15    16   ar
    10    16    19    1
    11    19    20    1
    12    19    21    2
    13    19    22    2
    14    16    17   ar
    15    17    18   ar
    16     7     1    1
    17     1     2    1
    18     2     3    1
    19     3     4    1
    20     4    23    1
    21    23    24    1
    22    25    24    1
    23    25    26    1
    24    26    27   ar
    25    27    28   ar
    26    28    29    1
    27    28    30   ar
    28    30    31   ar
    29    31    32    1
    30    31    33   ar
    31    25    34    1
    32    34    35    1
    33    35    36    1
    34    36    37    1
    35    37    40    1
    36    40    41    1
    37    40    42    2
    38    40    43    2
    39    37    38    1
    40    38    39    1
    41     4     5    1
    42     5     6    1
    43    18    13   ar
    44     6     1    1
    45    33    26   ar
    46    39    34    1
@<TRIPOS>MOLECULE
*****
 43 46 0 0 0
SMALL
GASTEIGER

@<TRIPOS>ATOM
      1 C         140.0852  141.3918  166.7822 C.3     1  UNL1        0.0781
      2 C         140.3250  142.8724  166.7702 C.3     1  UNL1        0.0372
      3 C         139.6980  143.7252  165.7073 C.3     1  UNL1        0.0738
      4 N         138.8313  143.0973  164.6564 N.3     1  UNL1       -0.2725
      5 C         138.5915  141.6165  164.6683 C.3     1  UNL1        0.0738
      6 C         139.2185  140.7638  165.7312 C.3     1  UNL1        0.0372
      7 N         140.7122  140.5390  167.8451 N.am    1  UNL1       -0.2808
      8 C         142.1763  140.2184  167.7826 C.2     1  UNL1        0.2300
      9 O         142.8032  139.3656  168.8455 O.2     1  UNL1       -0.2745
     10 C         139.2567  140.9524  169.9569 C.3     1  UNL1        0.0233
     11 C         139.8752  140.0070  168.9703 C.3     1  UNL1        0.0934
     12 C         143.0133  140.7504  166.6573 C.3     1  UNL1        0.1116
     13 C         142.9907  140.0717  165.3198 C.ar    1  UNL1       -0.0130
     14 C         142.2765  138.7630  165.1549 C.ar    1  UNL1       -0.0025
     15 C         142.2539  138.0843  163.8174 C.ar    1  UNL1        0.0180
     16 C         142.9456  138.7143  162.6449 C.ar    1  UNL1        0.1057
     17 C         143.6598  140.0230  162.8099 C.ar    1  UNL1        0.0180
     18 C         143.6823  140.7016  164.1473 C.ar    1  UNL1       -0.0025
     19 S         142.9230  138.0355  161.3074 S.O2    1  UNL1        0.0104
     20 C         142.9004  137.3568  159.9700 C.3     1  UNL1        0.1816
     21 O         141.5911  137.4296  161.6375 O.2     1  UNL1       -0.1686
     22 O         144.2549  138.6414  160.9774 O.2     1  UNL1       -0.1686
     23 C         138.2043  143.9500  163.5935 C.3     1  UNL1        0.0738
     24 C         139.0707  144.7379  162.6562 C.3     1  UNL1        0.0378
     25 C         140.0370  144.0297  161.7537 C.3     1  UNL1        0.0817
     26 C         141.5052  144.0540  162.0600 C.ar    1  UNL1       -0.0033
     27 C         142.0171  144.8636  163.2144 C.ar    1  UNL1        0.0268
     28 C         143.4853  144.8879  163.5208 C.ar    1  UNL1        0.1421
     29 F         143.9972  145.6974  164.6751 F       1  UNL1       -0.2041
     30 C         144.4415  144.1027  162.6728 C.ar    1  UNL1        0.0592
     31 C         143.9296  143.2932  161.5184 C.ar    1  UNL1        0.1421
     32 F         144.8859  142.5080  160.6704 F       1  UNL1       -0.2041
     33 C         142.4614  143.2688  161.2120 C.ar    1  UNL1        0.0268
     34 N         139.5352  143.2970  160.5448 N.3     1  UNL1       -0.2678
     35 C         138.8830  141.9550  160.6983 C.3     1  UNL1        0.0917
     36 C         138.3811  141.2224  159.4893 C.3     1  UNL1        0.1128
     37 N         138.5316  141.8318  158.1270 N.3     1  UNL1       -0.1565
     38 C         139.1838  143.1738  157.9735 C.3     1  UNL1        0.1128
     39 C         139.6856  143.9064  159.1824 C.3     1  UNL1        0.0917
     40 S         138.0297  141.0991  156.9180 S.O2    1  UNL1        0.0457
     41 C         137.5279  140.3665  155.7092 C.3     1  UNL1        0.1960
     42 O         139.0073  141.8458  156.0597 O.2     1  UNL1       -0.1572
     43 O         137.0522  140.3525  157.7763 O.2     1  UNL1       -0.1572
@<TRIPOS>BOND
     1    10    11    1
     2    11     7    1
     3     7     8   am
     4     8     9    2
     5     8    12    1
     6    12    13    1
     7    13    14   ar
     8    14    15   ar
     9    15    16   ar
    10    16    19    1
    11    19    20    1
    12    19    21    2
    13    19    22    2
    14    16    17   ar
    15    17    18   ar
    16     7     1    1
    17     1     2    1
    18     2     3    1
    19     3     4    1
    20     4    23    1
    21    23    24    1
    22    25    24    1
    23    25    26    1
    24    26    27   ar
    25    27    28   ar
    26    28    29    1
    27    28    30   ar
    28    30    31   ar
    29    31    32    1
    30    31    33   ar
    31    25    34    1
    32    34    35    1
    33    35    36    1
    34    36    37    1
    35    37    40    1
    36    40    41    1
    37    40    42    2
    38    40    43    2
    39    37    38    1
    40    38    39    1
    41     4     5    1
    42     5     6    1
    43    18    13   ar
    44     6     1    1
    45    33    26   ar
    46    39    34    1
@<TRIPOS>MOLECULE
*****
 43 46 0 0 0
SMALL
GASTEIGER

@<TRIPOS>ATOM
      1 C         142.2544  144.2396  161.4985 C.3     1  UNL1        0.0781
      2 C         142.7178  143.0103  160.7747 C.3     1  UNL1        0.0372
      3 C         143.8706  142.2142  161.3106 C.3     1  UNL1        0.0738
      4 N         144.5599  142.6473  162.5705 N.3     1  UNL1       -0.2725
      5 C         144.0964  143.8766  163.2944 C.3     1  UNL1        0.0738
      6 C         142.9437  144.6728  162.7584 C.3     1  UNL1        0.0372
      7 N         141.1016  145.0357  160.9625 N.am    1  UNL1       -0.2808
      8 C         140.0582  145.5687  161.8993 C.2     1  UNL1        0.2300
      9 O         138.9055  146.3649  161.3633 O.2     1  UNL1       -0.2745
     10 C         140.1008  144.4433  158.6394 C.3     1  UNL1        0.0233
     11 C         140.9921  145.2989  159.4899 C.3     1  UNL1        0.0934
     12 C         140.1677  145.3056  163.3719 C.3     1  UNL1        0.1116
     13 C         139.7425  143.9800  163.9306 C.ar    1  UNL1       -0.0130
     14 C         140.4499  143.4068  165.1226 C.ar    1  UNL1       -0.0025
     15 C         140.0247  142.0812  165.6812 C.ar    1  UNL1        0.0180
     16 C         138.8920  141.3290  165.0479 C.ar    1  UNL1        0.1057
     17 C         138.1846  141.9022  163.8559 C.ar    1  UNL1        0.0180
     18 C         138.6098  143.2277  163.2973 C.ar    1  UNL1       -0.0025
     19 S         138.4668  140.0034  165.6065 S.O2    1  UNL1        0.0104
     20 C         138.0416  138.6779  166.1653 C.3     1  UNL1        0.1816
     21 O         139.2273  140.2907  166.8671 O.2     1  UNL1       -0.1686
     22 O         137.7062  139.7160  164.3460 O.2     1  UNL1       -0.1686
     23 C         145.7127  141.8511  163.1065 C.3     1  UNL1        0.0738
     24 C         145.4593  140.5838  163.8678 C.3     1  UNL1        0.0378
     25 C         144.0564  140.1914  164.2254 C.3     1  UNL1        0.0817
     26 C         143.1584  139.5881  163.1865 C.ar    1  UNL1       -0.0033
     27 C         141.7366  140.0502  163.0642 C.ar    1  UNL1        0.0268
     28 C         140.8386  139.4469  162.0252 C.ar    1  UNL1        0.1421
     29 F         139.4168  139.9090  161.9030 F       1  UNL1       -0.2041
     30 C         141.3623  138.3814  161.1085 C.ar    1  UNL1        0.0592
     31 C         142.7841  137.9192  161.2307 C.ar    1  UNL1        0.1421
     32 F         143.3078  136.8538  160.3139 F       1  UNL1       -0.2041
     33 C         143.6822  138.5226  162.2697 C.ar    1  UNL1        0.0268
     34 N         143.5515  140.4023  165.6220 N.3     1  UNL1       -0.2678
     35 C         143.5222  141.7826  166.2085 C.3     1  UNL1        0.0917
     36 C         143.0173  141.9935  167.6052 C.3     1  UNL1        0.1128
     37 N         142.5418  140.8241  168.4153 N.3     1  UNL1       -0.1565
     38 C         142.5711  139.4438  167.8289 C.3     1  UNL1        0.1128
     39 C         143.0759  139.2329  166.4323 C.3     1  UNL1        0.0917
     40 S         142.0368  141.0350  169.8120 S.O2    1  UNL1        0.0457
     41 C         141.5319  141.2459  171.2086 C.3     1  UNL1        0.1960
     42 O         143.2133  140.2770  170.3518 O.2     1  UNL1       -0.1572
     43 O         140.8604  141.7930  169.2722 O.2     1  UNL1       -0.1572
@<TRIPOS>BOND
     1    10    11    1
     2    11     7    1
     3     7     8   am
     4     8     9    2
     5     8    12    1
     6    12    13    1
     7    13    14   ar
     8    14    15   ar
     9    15    16   ar
    10    16    19    1
    11    19    20    1
    12    19    21    2
    13    19    22    2
    14    16    17   ar
    15    17    18   ar
    16     7     1    1
    17     1     2    1
    18     2     3    1
    19     3     4    1
    20     4    23    1
    21    23    24    1
    22    25    24    1
    23    25    26    1
    24    26    27   ar
    25    27    28   ar
    26    28    29    1
    27    28    30   ar
    28    30    31   ar
    29    31    32    1
    30    31    33   ar
    31    25    34    1
    32    34    35    1
    33    35    36    1
    34    36    37    1
    35    37    40    1
    36    40    41    1
    37    40    42    2
    38    40    43    2
    39    37    38    1
    40    38    39    1
    41     4     5    1
    42     5     6    1
    43    18    13   ar
    44     6     1    1
    45    33    26   ar
    46    39    34    1
@<TRIPOS>MOLECULE
*****
 43 46 0 0 0
SMALL
GASTEIGER

@<TRIPOS>ATOM
      1 C         142.6966  139.2127  159.6604 C.3     1  UNL1        0.0781
      2 C         143.1346  138.6613  160.9848 C.3     1  UNL1        0.0372
      3 C         143.9362  139.5132  161.9238 C.3     1  UNL1        0.0738
      4 N         144.2997  140.9165  161.5384 N.3     1  UNL1       -0.2725
      5 C         143.8617  141.4680  160.2140 C.3     1  UNL1        0.0738
      6 C         143.0601  140.6161  159.2750 C.3     1  UNL1        0.0372
      7 N         141.8950  138.3608  158.7214 N.am    1  UNL1       -0.2808
      8 C         140.4262  138.6121  158.5491 C.2     1  UNL1        0.2300
      9 O         139.6246  137.7602  157.6101 O.2     1  UNL1       -0.2745
     10 C         142.9701  137.4763  156.5279 C.3     1  UNL1        0.0233
     11 C         142.5621  137.2576  157.9546 C.3     1  UNL1        0.0934
     12 C         139.7591  139.7153  159.3159 C.3     1  UNL1        0.1116
     13 C         139.4467  139.5342  160.7718 C.ar    1  UNL1       -0.0130
     14 C         139.4006  140.7251  161.6827 C.ar    1  UNL1       -0.0025
     15 C         139.0882  140.5440  163.1386 C.ar    1  UNL1        0.0180
     16 C         138.8219  139.1721  163.6836 C.ar    1  UNL1        0.1057
     17 C         138.8680  137.9813  162.7727 C.ar    1  UNL1        0.0180
     18 C         139.1804  138.1624  161.3168 C.ar    1  UNL1       -0.0025
     19 S         138.5095  138.9911  165.1395 S.O2    1  UNL1        0.0104
     20 C         138.1972  138.8100  166.5954 C.3     1  UNL1        0.1816
     21 O         138.8286  137.5298  165.0262 O.2     1  UNL1       -0.1686
     22 O         138.1904  140.4523  165.2528 O.2     1  UNL1       -0.1686
     23 C         145.1013  141.7684  162.4774 C.3     1  UNL1        0.0738
     24 C         144.5130  143.0322  163.0311 C.3     1  UNL1        0.0378
     25 C         143.1772  143.0019  163.7127 C.3     1  UNL1        0.0817
     26 C         142.0188  143.7532  163.1265 C.ar    1  UNL1       -0.0033
     27 C         142.1333  144.3606  161.7597 C.ar    1  UNL1        0.0268
     28 C         140.9750  145.1120  161.1735 C.ar    1  UNL1        0.1421
     29 F         141.0895  145.7193  159.8067 F       1  UNL1       -0.2041
     30 C         139.7022  145.2560  161.9539 C.ar    1  UNL1        0.0592
     31 C         139.5877  144.6486  163.3206 C.ar    1  UNL1        0.1421
     32 F         138.3148  144.7926  164.1011 F       1  UNL1       -0.2041
     33 C         140.7460  143.8972  163.9070 C.ar    1  UNL1        0.0268
     34 N         142.9996  142.2202  164.9806 N.3     1  UNL1       -0.2678
     35 C         143.3698  142.8341  166.2982 C.3     1  UNL1        0.0917
     36 C         143.1922  142.0524  167.5661 C.3     1  UNL1        0.1128
     37 N         142.6445  140.6568  167.5163 N.3     1  UNL1       -0.1565
     38 C         142.2744  140.0430  166.1986 C.3     1  UNL1        0.1128
     39 C         142.4519  140.8246  164.9308 C.3     1  UNL1        0.0917
     40 S         142.4670  139.8751  168.7842 S.O2    1  UNL1        0.0457
     41 C         142.2894  139.0935  170.0520 C.3     1  UNL1        0.1960
     42 O         143.1707  138.7058  168.1618 O.2     1  UNL1       -0.1572
     43 O         141.7632  141.0444  169.4065 O.2     1  UNL1       -0.1572
@<TRIPOS>BOND
     1    10    11    1
     2    11     7    1
     3     7     8   am
     4     8     9    2
     5     8    12    1
     6    12    13    1
     7    13    14   ar
     8    14    15   ar
     9    15    16   ar
    10    16    19    1
    11    19    20    1
    12    19    21    2
    13    19    22    2
    14    16    17   ar
    15    17    18   ar
    16     7     1    1
    17     1     2    1
    18     2     3    1
    19     3     4    1
    20     4    23    1
    21    23    24    1
    22    25    24    1
    23    25    26    1
    24    26    27   ar
    25    27    28   ar
    26    28    29    1
    27    28    30   ar
    28    30    31   ar
    29    31    32    1
    30    31    33   ar
    31    25    34    1
    32    34    35    1
    33    35    36    1
    34    36    37    1
    35    37    40    1
    36    40    41    1
    37    40    42    2
    38    40    43    2
    39    37    38    1
    40    38    39    1
    41     4     5    1
    42     5     6    1
    43    18    13   ar
    44     6     1    1
    45    33    26   ar
    46    39    34    1
@<TRIPOS>MOLECULE
*****
 43 46 0 0 0
SMALL
GASTEIGER

@<TRIPOS>ATOM
      1 C         142.5539  140.3999  166.6545 C.3     1  UNL1        0.0781
      2 C         143.1840  141.3792  165.7090 C.3     1  UNL1        0.0372
      3 C         143.7262  140.9078  164.3923 C.3     1  UNL1        0.0738
      4 N         143.6383  139.4572  164.0210 N.3     1  UNL1       -0.2725
      5 C         143.0082  138.4778  164.9665 C.3     1  UNL1        0.0738
      6 C         142.4660  138.9492  166.2833 C.3     1  UNL1        0.0372
      7 N         142.0117  140.8713  167.9713 N.am    1  UNL1       -0.2808
      8 C         140.5458  141.1518  168.1216 C.2     1  UNL1        0.2300
      9 O         140.0036  141.6232  169.4384 O.2     1  UNL1       -0.2745
     10 C         143.5363  142.4101  169.4055 C.3     1  UNL1        0.0233
     11 C         142.9353  141.0622  169.1376 C.3     1  UNL1        0.0934
     12 C         139.6222  140.9609  166.9552 C.3     1  UNL1        0.1116
     13 C         139.7322  141.8565  165.7569 C.ar    1  UNL1       -0.0130
     14 C         139.8157  143.3433  165.9369 C.ar    1  UNL1       -0.0025
     15 C         139.9258  144.2388  164.7387 C.ar    1  UNL1        0.0180
     16 C         139.9524  143.6475  163.3604 C.ar    1  UNL1        0.1057
     17 C         139.8689  142.1607  163.1804 C.ar    1  UNL1        0.0180
     18 C         139.7588  141.2652  164.3786 C.ar    1  UNL1       -0.0025
     19 S         140.0625  144.5430  162.1620 S.O2    1  UNL1        0.0104
     20 C         140.1726  145.4386  160.9638 C.3     1  UNL1        0.1816
     21 O         141.4925  144.1274  161.9829 O.2     1  UNL1       -0.1686
     22 O         138.6324  144.9586  162.3412 O.2     1  UNL1       -0.1686
     23 C         144.1805  138.9858  162.7043 C.3     1  UNL1        0.0738
     24 C         143.4618  137.9160  161.9369 C.3     1  UNL1        0.0378
     25 C         142.4475  138.2914  160.8975 C.3     1  UNL1        0.0817
     26 C         140.9993  138.4081  161.2704 C.ar    1  UNL1       -0.0033
     27 C         140.5023  137.7988  162.5478 C.ar    1  UNL1        0.0268
     28 C         139.0541  137.9155  162.9207 C.ar    1  UNL1        0.1421
     29 F         138.5572  137.3062  164.1981 F       1  UNL1       -0.2041
     30 C         138.1029  138.6415  162.0162 C.ar    1  UNL1        0.0592
     31 C         138.5999  139.2508  160.7388 C.ar    1  UNL1        0.1421
     32 F         137.6486  139.9767  159.8343 F       1  UNL1       -0.2041
     33 C         140.0481  139.1341  160.3659 C.ar    1  UNL1        0.0268
     34 N         142.8815  138.5501  159.4851 N.3     1  UNL1       -0.2678
     35 C         143.5139  139.8612  159.1230 C.3     1  UNL1        0.0917
     36 C         143.9478  140.1199  157.7106 C.3     1  UNL1        0.1128
     37 N         143.7494  139.0675  156.6604 N.3     1  UNL1       -0.1565
     38 C         143.1170  137.7564  157.0225 C.3     1  UNL1        0.1128
     39 C         142.6831  137.4977  158.4348 C.3     1  UNL1        0.0917
     40 S         144.1834  139.3262  155.2480 S.O2    1  UNL1        0.0457
     41 C         144.6173  139.5849  153.8356 C.3     1  UNL1        0.1960
     42 O         145.1694  138.2000  155.3446 O.2     1  UNL1       -0.1572
     43 O         143.1973  140.4524  155.1513 O.2     1  UNL1       -0.1572
@<TRIPOS>BOND
     1    10    11    1
     2    11     7    1
     3     7     8   am
     4     8     9    2
     5     8    12    1
     6    12    13    1
     7    13    14   ar
     8    14    15   ar
     9    15    16   ar
    10    16    19    1
    11    19    20    1
    12    19    21    2
    13    19    22    2
    14    16    17   ar
    15    17    18   ar
    16     7     1    1
    17     1     2    1
    18     2     3    1
    19     3     4    1
    20     4    23    1
    21    23    24    1
    22    25    24    1
    23    25    26    1
    24    26    27   ar
    25    27    28   ar
    26    28    29    1
    27    28    30   ar
    28    30    31   ar
    29    31    32    1
    30    31    33   ar
    31    25    34    1
    32    34    35    1
    33    35    36    1
    34    36    37    1
    35    37    40    1
    36    40    41    1
    37    40    42    2
    38    40    43    2
    39    37    38    1
    40    38    39    1
    41     4     5    1
    42     5     6    1
    43    18    13   ar
    44     6     1    1
    45    33    26   ar
    46    39    34    1
@<TRIPOS>MOLECULE
*****
 43 46 0 0 0
SMALL
GASTEIGER

@<TRIPOS>ATOM
      1 C         142.5471  140.4311  166.7196 C.3     1  UNL1        0.0781
      2 C         143.1599  141.4320  165.7855 C.3     1  UNL1        0.0372
      3 C         143.6998  140.9871  164.4586 C.3     1  UNL1        0.0738
      4 N         143.6270  139.5413  164.0659 N.3     1  UNL1       -0.2725
      5 C         143.0141  138.5403  165.0000 C.3     1  UNL1        0.0738
      6 C         142.4742  138.9852  166.3269 C.3     1  UNL1        0.0372
      7 N         142.0072  140.8760  168.0465 N.am    1  UNL1       -0.2808
      8 C         140.5374  141.1257  168.2125 C.2     1  UNL1        0.2300
      9 O         139.9975  141.5706  169.5394 O.2     1  UNL1       -0.2745
     10 C         143.4768  142.4364  169.5143 C.3     1  UNL1        0.0233
     11 C         142.9369  141.0711  169.2072 C.3     1  UNL1        0.0934
     12 C         139.6077  140.9305  167.0518 C.3     1  UNL1        0.1116
     13 C         139.6811  141.8503  165.8691 C.ar    1  UNL1       -0.0130
     14 C         139.4676  141.3116  164.4856 C.ar    1  UNL1       -0.0025
     15 C         139.5410  142.2314  163.3030 C.ar    1  UNL1        0.0180
     16 C         139.8279  143.6899  163.5039 C.ar    1  UNL1        0.1057
     17 C         140.0414  144.2287  164.8874 C.ar    1  UNL1        0.0180
     18 C         139.9680  143.3089  166.0700 C.ar    1  UNL1       -0.0025
     19 S         139.9013  144.6098  162.3213 S.O2    1  UNL1        0.0104
     20 C         139.9747  145.5295  161.1386 C.3     1  UNL1        0.1816
     21 O         138.9159  143.7475  161.5896 O.2     1  UNL1       -0.1686
     22 O         140.8868  145.4720  163.0530 O.2     1  UNL1       -0.1686
     23 C         144.1669  139.0964  162.7390 C.3     1  UNL1        0.0738
     24 C         143.4786  138.0023  161.9780 C.3     1  UNL1        0.0378
     25 C         142.4530  138.3428  160.9377 C.3     1  UNL1        0.0817
     26 C         141.0025  138.4198  161.3116 C.ar    1  UNL1       -0.0033
     27 C         140.0305  139.1168  160.4062 C.ar    1  UNL1        0.0268
     28 C         138.5799  139.1937  160.7801 C.ar    1  UNL1        0.1421
     29 F         137.6081  139.8906  159.8747 F       1  UNL1       -0.2041
     30 C         138.1012  138.5737  162.0593 C.ar    1  UNL1        0.0592
     31 C         139.0731  137.8768  162.9646 C.ar    1  UNL1        0.1421
     32 F         138.5943  137.2568  164.2439 F       1  UNL1       -0.2041
     33 C         140.5237  137.7998  162.5908 C.ar    1  UNL1        0.0268
     34 N         142.8780  138.6065  159.5235 N.3     1  UNL1       -0.2678
     35 C         143.5814  139.8854  159.1778 C.3     1  UNL1        0.0917
     36 C         144.0064  140.1490  157.7636 C.3     1  UNL1        0.1128
     37 N         143.7280  139.1336  156.6952 N.3     1  UNL1       -0.1565
     38 C         143.0246  137.8547  157.0409 C.3     1  UNL1        0.1128
     39 C         142.5996  137.5911  158.4550 C.3     1  UNL1        0.0917
     40 S         144.1530  139.3972  155.2809 S.O2    1  UNL1        0.0457
     41 C         144.5779  139.6608  153.8668 C.3     1  UNL1        0.1960
     42 O         145.1336  138.2653  155.3646 O.2     1  UNL1       -0.1572
     43 O         143.1723  140.5291  155.1972 O.2     1  UNL1       -0.1572
@<TRIPOS>BOND
     1    10    11    1
     2    11     7    1
     3     7     8   am
     4     8     9    2
     5     8    12    1
     6    12    13    1
     7    13    14   ar
     8    14    15   ar
     9    15    16   ar
    10    16    19    1
    11    19    20    1
    12    19    21    2
    13    19    22    2
    14    16    17   ar
    15    17    18   ar
    16     7     1    1
    17     1     2    1
    18     2     3    1
    19     3     4    1
    20     4    23    1
    21    23    24    1
    22    25    24    1
    23    25    26    1
    24    26    27   ar
    25    27    28   ar
    26    28    29    1
    27    28    30   ar
    28    30    31   ar
    29    31    32    1
    30    31    33   ar
    31    25    34    1
    32    34    35    1
    33    35    36    1
    34    36    37    1
    35    37    40    1
    36    40    41    1
    37    40    42    2
    38    40    43    2
    39    37    38    1
    40    38    39    1
    41     4     5    1
    42     5     6    1
    43    18    13   ar
    44     6     1    1
    45    33    26   ar
    46    39    34    1
@<TRIPOS>MOLECULE
*****
 43 46 0 0 0
SMALL
GASTEIGER

@<TRIPOS>ATOM
      1 C         140.7901  138.3200  160.6954 C.3     1  UNL1        0.0781
      2 C         141.4203  137.5895  161.8439 C.3     1  UNL1        0.0372
      3 C         140.6789  137.4479  163.1402 C.3     1  UNL1        0.0738
      4 N         139.3072  138.0368  163.2878 N.3     1  UNL1       -0.2725
      5 C         138.6770  138.7673  162.1392 C.3     1  UNL1        0.0738
      6 C         139.4184  138.9089  160.8430 C.3     1  UNL1        0.0372
      7 N         141.5316  138.4616  159.3991 N.am    1  UNL1       -0.2808
      8 C         143.0169  138.6711  159.4038 C.2     1  UNL1        0.2300
      9 O         143.7584  138.8127  158.1075 O.2     1  UNL1       -0.2745
     10 C         140.4371  139.6561  157.3682 C.3     1  UNL1        0.0233
     11 C         140.7878  138.3937  158.0984 C.3     1  UNL1        0.0934
     12 C         143.7607  138.7390  160.7045 C.3     1  UNL1        0.1116
     13 C         143.8213  140.0291  161.4675 C.ar    1  UNL1       -0.0130
     14 C         143.9744  140.0117  162.9595 C.ar    1  UNL1       -0.0025
     15 C         144.0349  141.3018  163.7223 C.ar    1  UNL1        0.0180
     16 C         143.9423  142.6093  162.9931 C.ar    1  UNL1        0.1057
     17 C         143.7892  142.6268  161.5011 C.ar    1  UNL1        0.0180
     18 C         143.7286  141.3367  160.7383 C.ar    1  UNL1       -0.0025
     19 S         144.0028  143.8994  163.7560 S.O2    1  UNL1        0.0104
     20 C         144.0634  145.1895  164.5189 C.3     1  UNL1        0.1816
     21 O         144.3379  144.6319  162.4907 O.2     1  UNL1       -0.1686
     22 O         143.6678  143.1670  165.0214 O.2     1  UNL1       -0.1686
     23 C         138.5658  137.8952  164.5840 C.3     1  UNL1        0.0738
     24 C         138.3669  139.0901  165.4687 C.3     1  UNL1        0.0378
     25 C         139.4722  140.0898  165.6386 C.3     1  UNL1        0.0817
     26 C         140.5703  139.8329  166.6275 C.ar    1  UNL1       -0.0033
     27 C         141.8451  139.1810  166.1802 C.ar    1  UNL1        0.0268
     28 C         142.9433  138.9241  167.1691 C.ar    1  UNL1        0.1421
     29 F         144.2179  138.2722  166.7218 F       1  UNL1       -0.2041
     30 C         142.7667  139.3191  168.6054 C.ar    1  UNL1        0.0592
     31 C         141.4921  139.9710  169.0527 C.ar    1  UNL1        0.1421
     32 F         141.3156  140.3660  170.4889 F       1  UNL1       -0.2041
     33 C         140.3938  140.2280  168.0638 C.ar    1  UNL1        0.0268
     34 N         139.4793  141.3464  164.8196 N.3     1  UNL1       -0.2678
     35 C         138.5479  142.4709  165.1631 C.3     1  UNL1        0.0917
     36 C         138.5551  143.7276  164.3440 C.3     1  UNL1        0.1128
     37 N         139.4936  143.8597  163.1815 N.3     1  UNL1       -0.1565
     38 C         140.4251  142.7353  162.8380 C.3     1  UNL1        0.1128
     39 C         140.4179  141.4787  163.6570 C.3     1  UNL1        0.0917
     40 S         139.5008  145.1164  162.3624 S.O2    1  UNL1        0.0457
     41 C         139.5079  146.3730  161.5434 C.3     1  UNL1        0.1960
     42 O         141.0007  145.1187  162.3790 O.2     1  UNL1       -0.1572
     43 O         138.0009  145.1141  162.3459 O.2     1  UNL1       -0.1572
@<TRIPOS>BOND
     1    10    11    1
     2    11     7    1
     3     7     8   am
     4     8     9    2
     5     8    12    1
     6    12    13    1
     7    13    14   ar
     8    14    15   ar
     9    15    16   ar
    10    16    19    1
    11    19    20    1
    12    19    21    2
    13    19    22    2
    14    16    17   ar
    15    17    18   ar
    16     7     1    1
    17     1     2    1
    18     2     3    1
    19     3     4    1
    20     4    23    1
    21    23    24    1
    22    25    24    1
    23    25    26    1
    24    26    27   ar
    25    27    28   ar
    26    28    29    1
    27    28    30   ar
    28    30    31   ar
    29    31    32    1
    30    31    33   ar
    31    25    34    1
    32    34    35    1
    33    35    36    1
    34    36    37    1
    35    37    40    1
    36    40    41    1
    37    40    42    2
    38    40    43    2
    39    37    38    1
    40    38    39    1
    41     4     5    1
    42     5     6    1
    43    18    13   ar
    44     6     1    1
    45    33    26   ar
    46    39    34    1
@<TRIPOS>MOLECULE
*****
 43 46 0 0 0
SMALL
GASTEIGER

@<TRIPOS>ATOM
      1 C         139.0401  139.0281  165.1109 C.3     1  UNL1        0.0781
      2 C         140.0052  137.9584  164.6936 C.3     1  UNL1        0.0372
      3 C         140.2824  137.7246  163.2381 C.3     1  UNL1        0.0738
      4 N         139.5945  138.5605  162.1999 N.3     1  UNL1       -0.2725
      5 C         138.6294  139.6303  162.6172 C.3     1  UNL1        0.0738
      6 C         138.3522  139.8642  164.0727 C.3     1  UNL1        0.0372
      7 N         138.7629  139.2619  166.5664 N.am    1  UNL1       -0.2808
      8 C         139.6519  140.1707  167.3627 C.2     1  UNL1        0.2300
      9 O         139.3747  140.4045  168.8182 O.2     1  UNL1       -0.2745
     10 C         137.3288  137.1335  166.9701 C.3     1  UNL1        0.0233
     11 C         137.5968  138.5871  167.2257 C.3     1  UNL1        0.0934
     12 C         140.8180  140.8455  166.7035 C.3     1  UNL1        0.1116
     13 C         140.5846  141.9369  165.7012 C.ar    1  UNL1       -0.0130
     14 C         141.3275  141.9299  164.3981 C.ar    1  UNL1       -0.0025
     15 C         141.0940  143.0212  163.3959 C.ar    1  UNL1        0.0180
     16 C         140.1176  144.1195  163.6967 C.ar    1  UNL1        0.1057
     17 C         139.3748  144.1265  164.9998 C.ar    1  UNL1        0.0180
     18 C         139.6082  143.0351  166.0020 C.ar    1  UNL1       -0.0025
     19 S         139.8842  145.2109  162.6944 S.O2    1  UNL1        0.0104
     20 C         139.6507  146.3021  161.6922 C.3     1  UNL1        0.1816
     21 O         138.4778  144.7284  162.4967 O.2     1  UNL1       -0.1686
     22 O         141.2906  145.6934  162.8922 O.2     1  UNL1       -0.1686
     23 C         139.8717  138.3267  160.7444 C.3     1  UNL1        0.0738
     24 C         141.2153  138.6694  160.1723 C.3     1  UNL1        0.0378
     25 C         141.7101  140.0847  160.2158 C.3     1  UNL1        0.0817
     26 C         142.7834  140.4745  161.1885 C.ar    1  UNL1       -0.0033
     27 C         143.2241  139.5068  162.2465 C.ar    1  UNL1        0.0268
     28 C         144.2973  139.8966  163.2193 C.ar    1  UNL1        0.1421
     29 F         144.7380  138.9289  164.2772 F       1  UNL1       -0.2041
     30 C         144.9299  141.2540  163.1340 C.ar    1  UNL1        0.0592
     31 C         144.4892  142.2217  162.0760 C.ar    1  UNL1        0.1421
     32 F         145.1217  143.5791  161.9907 F       1  UNL1       -0.2041
     33 C         143.4159  141.8319  161.1032 C.ar    1  UNL1        0.0268
     34 N         141.1318  141.1103  159.2865 N.3     1  UNL1       -0.2678
     35 C         140.0889  142.0679  159.7818 C.3     1  UNL1        0.0917
     36 C         139.5105  143.0935  158.8524 C.3     1  UNL1        0.1128
     37 N         139.9750  143.1615  157.4278 N.3     1  UNL1       -0.1565
     38 C         141.0179  142.2039  156.9325 C.3     1  UNL1        0.1128
     39 C         141.5963  141.1783  157.8618 C.3     1  UNL1        0.0917
     40 S         139.3967  144.1871  156.4985 S.O2    1  UNL1        0.0457
     41 C         138.8183  145.2127  155.5691 C.3     1  UNL1        0.1960
     42 O         139.8232  145.2774  157.4361 O.2     1  UNL1       -0.1572
     43 O         138.9701  143.0968  155.5608 O.2     1  UNL1       -0.1572
@<TRIPOS>BOND
     1    10    11    1
     2    11     7    1
     3     7     8   am
     4     8     9    2
     5     8    12    1
     6    12    13    1
     7    13    14   ar
     8    14    15   ar
     9    15    16   ar
    10    16    19    1
    11    19    20    1
    12    19    21    2
    13    19    22    2
    14    16    17   ar
    15    17    18   ar
    16     7     1    1
    17     1     2    1
    18     2     3    1
    19     3     4    1
    20     4    23    1
    21    23    24    1
    22    25    24    1
    23    25    26    1
    24    26    27   ar
    25    27    28   ar
    26    28    29    1
    27    28    30   ar
    28    30    31   ar
    29    31    32    1
    30    31    33   ar
    31    25    34    1
    32    34    35    1
    33    35    36    1
    34    36    37    1
    35    37    40    1
    36    40    41    1
    37    40    42    2
    38    40    43    2
    39    37    38    1
    40    38    39    1
    41     4     5    1
    42     5     6    1
    43    18    13   ar
    44     6     1    1
    45    33    26   ar
    46    39    34    1
