@<TRIPOS>MOLECULE
*****
 31 33 0 0 0
SMALL
GASTEIGER

@<TRIPOS>ATOM
      1 C         139.5089  140.2076  167.7107 C.ar    1  UNL1        0.1739
      2 C         140.1607  141.4337  167.1435 C.ar    1  UNL1        0.0593
      3 C         139.7871  141.9158  165.7731 C.ar    1  UNL1        0.0901
      4 N         140.4390  143.1419  165.2058 N.ar    1  UNL1       -0.2134
      5 C         140.0655  143.6240  163.8354 C.ar    1  UNL1        0.2213
      6 N         139.0400  142.8800  163.0322 N.ar    1  UNL1       -0.1991
      7 C         138.3881  141.6539  163.5995 C.ar    1  UNL1        0.1298
      8 N         137.3627  140.9100  162.7964 N.pl3   1  UNL1       -0.3425
      9 C         138.7617  141.1718  164.9699 C.ar    1  UNL1        0.0522
     10 C         138.1099  139.9458  165.5372 C.ar    1  UNL1        0.0443
     11 C         138.4835  139.4637  166.9076 C.ar    1  UNL1        0.1726
     12 H         137.1175  141.2265  161.8970 H       1  UNL1        0.1437
     13 H         136.9349  140.1053  163.1687 H       1  UNL1        0.1437
     14 C         141.3103  139.7913  169.5360 C.3     1  UNL1        0.2526
     15 O         139.8824  139.7255  169.0811 O.3     1  UNL1       -0.4683
     16 N         140.7173  144.8501  163.2681 N.pl3   1  UNL1       -0.2764
     17 C         140.0503  145.6094  162.1598 C.3     1  UNL1        0.1151
     18 C         142.0362  145.3168  163.8091 C.3     1  UNL1        0.0954
     19 C         143.3144  144.8172  163.2036 C.3     1  UNL1        0.0427
     20 C         144.0794  143.7133  163.8714 C.3     1  UNL1        0.0912
     21 N         143.3648  142.4773  164.3315 N.am    1  UNL1       -0.3023
     22 C         143.0492  141.3853  163.3529 C.2     1  UNL1        0.2496
     23 O         143.4482  141.5291  161.9141 O.2     1  UNL1       -0.2725
     24 H         143.1030  142.3829  165.2759 H       1  UNL1        0.1495
     25 C         142.3347  140.1493  163.8131 C.3     1  UNL1        0.1908
     26 C         142.5541  139.4371  165.1149 C.3     1  UNL1        0.0416
     27 C         141.6302  138.2561  165.1587 C.3     1  UNL1        0.0351
     28 C         140.8398  138.2385  163.8839 C.3     1  UNL1        0.1428
     29 O         141.2752  139.4085  163.0523 O.3     1  UNL1       -0.3471
     30 O         137.8316  138.2375  167.4749 O.3     1  UNL1       -0.4684
     31 C         137.6197  137.0317  166.6083 C.3     1  UNL1        0.2526
@<TRIPOS>BOND
     1    14    15    1
     2    15     1    1
     3     1     2   ar
     4     2     3   ar
     5     3     4   ar
     6     4     5   ar
     7     5    16    1
     8    16    17    1
     9    16    18    1
    10    18    19    1
    11    19    20    1
    12    20    21    1
    13    21    22   am
    14    22    23    2
    15    22    25    1
    16    25    26    1
    17    26    27    1
    18    27    28    1
    19    28    29    1
    20     5     6   ar
    21     6     7   ar
    22     7     8    1
    23     7     9   ar
    24     9    10   ar
    25    10    11   ar
    26    11    30    1
    27    30    31    1
    28    11     1   ar
    29     9     3   ar
    30    29    25    1
    31    21    24    1
    32     8    12    1
    33     8    13    1
@<TRIPOS>MOLECULE
*****
 31 33 0 0 0
SMALL
GASTEIGER

@<TRIPOS>ATOM
      1 C         138.8043  144.3787  163.1318 C.ar    1  UNL1        0.1739
      2 C         139.4272  144.4693  164.4933 C.ar    1  UNL1        0.0593
      3 C         139.5232  143.2466  165.3571 C.ar    1  UNL1        0.0901
      4 N         140.1461  143.3372  166.7186 N.ar    1  UNL1       -0.2134
      5 C         140.2420  142.1146  167.5824 C.ar    1  UNL1        0.2213
      6 N         139.7150  140.8014  167.0845 N.ar    1  UNL1       -0.1991
      7 C         139.0920  140.7109  165.7230 C.ar    1  UNL1        0.1298
      8 N         138.5650  139.3977  165.2253 N.pl3   1  UNL1       -0.3425
      9 C         138.9961  141.9335  164.8593 C.ar    1  UNL1        0.0522
     10 C         138.3732  141.8429  163.4978 C.ar    1  UNL1        0.0443
     11 C         138.2773  143.0655  162.6341 C.ar    1  UNL1        0.1726
     12 H         138.6280  138.5953  165.7922 H       1  UNL1        0.1437
     13 H         138.1561  139.3383  164.3317 H       1  UNL1        0.1437
     14 C         139.9007  146.0594  161.4817 C.3     1  UNL1        0.2526
     15 O         138.7084  145.6013  162.2681 O.3     1  UNL1       -0.4683
     16 N         140.8650  142.2052  168.9438 N.pl3   1  UNL1       -0.2764
     17 C         140.0215  142.5597  170.1325 C.3     1  UNL1        0.1151
     18 C         142.3315  141.9412  169.1167 C.3     1  UNL1        0.0954
     19 C         142.7961  140.6340  169.6869 C.3     1  UNL1        0.0427
     20 C         142.6762  139.3774  168.8765 C.3     1  UNL1        0.0912
     21 N         142.5813  139.4553  167.3815 N.am    1  UNL1       -0.3023
     22 C         143.3952  138.5275  166.5291 C.2     1  UNL1        0.2496
     23 O         144.3040  137.5219  167.1715 O.2     1  UNL1       -0.2725
     24 H         141.9849  140.1153  166.9598 H       1  UNL1        0.1495
     25 C         143.3003  138.6054  165.0341 C.3     1  UNL1        0.1908
     26 C         142.1854  138.0599  164.1918 C.3     1  UNL1        0.0416
     27 C         142.4997  138.3598  162.7561 C.3     1  UNL1        0.0351
     28 C         143.8088  139.0907  162.7110 C.3     1  UNL1        0.1428
     29 O         144.3037  139.2425  164.1189 O.3     1  UNL1       -0.3471
     30 O         137.6543  142.9749  161.2725 O.3     1  UNL1       -0.4684
     31 C         138.4983  142.6227  160.0836 C.3     1  UNL1        0.2526
@<TRIPOS>BOND
     1    14    15    1
     2    15     1    1
     3     1     2   ar
     4     2     3   ar
     5     3     4   ar
     6     4     5   ar
     7     5    16    1
     8    16    17    1
     9    16    18    1
    10    18    19    1
    11    19    20    1
    12    20    21    1
    13    21    22   am
    14    22    23    2
    15    22    25    1
    16    25    26    1
    17    26    27    1
    18    27    28    1
    19    28    29    1
    20     5     6   ar
    21     6     7   ar
    22     7     8    1
    23     7     9   ar
    24     9    10   ar
    25    10    11   ar
    26    11    30    1
    27    30    31    1
    28    11     1   ar
    29     9     3   ar
    30    29    25    1
    31    21    24    1
    32     8    12    1
    33     8    13    1
@<TRIPOS>MOLECULE
*****
 31 33 0 0 0
SMALL
GASTEIGER

@<TRIPOS>ATOM
      1 C         139.5042  141.0879  163.5581 C.ar    1  UNL1        0.1739
      2 C         140.0591  141.6203  164.8459 C.ar    1  UNL1        0.0593
      3 C         139.6644  140.9916  166.1494 C.ar    1  UNL1        0.0901
      4 N         140.2194  141.5241  167.4373 N.ar    1  UNL1       -0.2134
      5 C         139.8247  140.8954  168.7408 C.ar    1  UNL1        0.2213
      6 N         138.8751  139.7343  168.7563 N.ar    1  UNL1       -0.1991
      7 C         138.3202  139.2019  167.4685 C.ar    1  UNL1        0.1298
      8 N         137.3707  138.0409  167.4841 N.pl3   1  UNL1       -0.3425
      9 C         138.7149  139.8306  166.1650 C.ar    1  UNL1        0.0522
     10 C         138.1600  139.2982  164.8771 C.ar    1  UNL1        0.0443
     11 C         138.5547  139.9269  163.5737 C.ar    1  UNL1        0.1726
     12 H         137.1116  137.6283  168.3396 H       1  UNL1        0.1437
     13 H         137.0065  137.6915  166.6388 H       1  UNL1        0.1437
     14 C         138.9935  142.7175  161.6001 C.3     1  UNL1        0.2526
     15 O         139.8989  141.7166  162.2546 O.3     1  UNL1       -0.4683
     16 N         140.3796  141.4278  170.0286 N.pl3   1  UNL1       -0.2764
     17 C         139.9040  142.7467  170.5618 C.3     1  UNL1        0.1151
     18 C         141.4101  140.6413  170.7833 C.3     1  UNL1        0.0954
     19 C         142.7127  140.2892  170.1284 C.3     1  UNL1        0.0427
     20 C         142.7775  139.1541  169.1500 C.3     1  UNL1        0.0912
     21 N         142.5258  139.4048  167.6926 N.am    1  UNL1       -0.3023
     22 C         143.2810  138.6264  166.6563 C.2     1  UNL1        0.2496
     23 O         144.2879  137.5974  167.0774 O.2     1  UNL1       -0.2725
     24 H         141.8650  140.0802  167.4162 H       1  UNL1        0.1495
     25 C         143.0293  138.8772  165.1990 C.3     1  UNL1        0.1908
     26 C         143.5082  140.0613  164.4125 C.3     1  UNL1        0.0416
     27 C         143.0294  139.9038  162.9997 C.3     1  UNL1        0.0351
     28 C         142.2546  138.6223  162.9130 C.3     1  UNL1        0.1428
     29 O         142.2546  137.9878  164.2723 O.3     1  UNL1       -0.3471
     30 O         137.9998  139.3944  162.2858 O.3     1  UNL1       -0.4684
     31 C         138.6006  138.1712  161.6591 C.3     1  UNL1        0.2526
@<TRIPOS>BOND
     1    14    15    1
     2    15     1    1
     3     1     2   ar
     4     2     3   ar
     5     3     4   ar
     6     4     5   ar
     7     5    16    1
     8    16    17    1
     9    16    18    1
    10    18    19    1
    11    19    20    1
    12    20    21    1
    13    21    22   am
    14    22    23    2
    15    22    25    1
    16    25    26    1
    17    26    27    1
    18    27    28    1
    19    28    29    1
    20     5     6   ar
    21     6     7   ar
    22     7     8    1
    23     7     9   ar
    24     9    10   ar
    25    10    11   ar
    26    11    30    1
    27    30    31    1
    28    11     1   ar
    29     9     3   ar
    30    29    25    1
    31    21    24    1
    32     8    12    1
    33     8    13    1
@<TRIPOS>MOLECULE
*****
 31 33 0 0 0
SMALL
GASTEIGER

@<TRIPOS>ATOM
      1 C         141.4229  141.6427  168.2026 C.ar    1  UNL1        0.1739
      2 C         141.5193  141.1147  166.8020 C.ar    1  UNL1        0.0593
      3 C         140.5072  140.1271  166.3014 C.ar    1  UNL1        0.0901
      4 N         140.6036  139.5991  164.9007 N.ar    1  UNL1       -0.2134
      5 C         139.5916  138.6116  164.4002 C.ar    1  UNL1        0.2213
      6 N         138.4832  138.1520  165.3003 N.ar    1  UNL1       -0.1991
      7 C         138.3868  138.6800  166.7010 C.ar    1  UNL1        0.1298
      8 N         137.2784  138.2205  167.6011 N.pl3   1  UNL1       -0.3425
      9 C         139.3988  139.6676  167.2015 C.ar    1  UNL1        0.0522
     10 C         139.3025  140.1956  168.6022 C.ar    1  UNL1        0.0443
     11 C         140.3145  141.1831  169.1027 C.ar    1  UNL1        0.1726
     12 H         136.6142  137.5723  167.2726 H       1  UNL1        0.1437
     13 H         137.2152  138.5670  168.5204 H       1  UNL1        0.1437
     14 C         143.5591  142.1711  169.5837 C.3     1  UNL1        0.2526
     15 O         142.4349  142.6302  168.7032 O.3     1  UNL1       -0.4683
     16 N         139.6880  138.0836  162.9995 N.pl3   1  UNL1       -0.2764
     17 C         141.0188  137.6720  162.4430 C.3     1  UNL1        0.1151
     18 C         138.4536  137.9671  162.1553 C.3     1  UNL1        0.0954
     19 C         138.3471  138.7366  160.8721 C.3     1  UNL1        0.0427
     20 C         138.1240  140.2196  160.9033 C.3     1  UNL1        0.0912
     21 N         138.3897  140.9917  162.1616 N.am    1  UNL1       -0.3023
     22 C         138.3392  142.4908  162.1465 C.2     1  UNL1        0.2496
     23 O         138.0231  143.2177  160.8731 O.2     1  UNL1       -0.2725
     24 H         138.5972  140.5146  162.9974 H       1  UNL1        0.1495
     25 C         138.6050  143.2628  163.4047 C.3     1  UNL1        0.1908
     26 C         139.8480  143.1854  164.2409 C.3     1  UNL1        0.0416
     27 C         139.6856  144.1226  165.4007 C.3     1  UNL1        0.0351
     28 C         138.3422  144.7793  165.2815 C.3     1  UNL1        0.1428
     29 O         137.6743  144.2479  164.0479 O.3     1  UNL1       -0.3471
     30 O         140.2181  141.7111  170.5035 O.3     1  UNL1       -0.4684
     31 C         139.7166  143.1037  170.7472 C.3     1  UNL1        0.2526
@<TRIPOS>BOND
     1    14    15    1
     2    15     1    1
     3     1     2   ar
     4     2     3   ar
     5     3     4   ar
     6     4     5   ar
     7     5    16    1
     8    16    17    1
     9    16    18    1
    10    18    19    1
    11    19    20    1
    12    20    21    1
    13    21    22   am
    14    22    23    2
    15    22    25    1
    16    25    26    1
    17    26    27    1
    18    27    28    1
    19    28    29    1
    20     5     6   ar
    21     6     7   ar
    22     7     8    1
    23     7     9   ar
    24     9    10   ar
    25    10    11   ar
    26    11    30    1
    27    30    31    1
    28    11     1   ar
    29     9     3   ar
    30    29    25    1
    31    21    24    1
    32     8    12    1
    33     8    13    1
@<TRIPOS>MOLECULE
*****
 31 33 0 0 0
SMALL
GASTEIGER

@<TRIPOS>ATOM
      1 C         144.4885  142.7925  163.0320 C.ar    1  UNL1        0.1739
      2 C         144.1444  142.9265  161.5782 C.ar    1  UNL1        0.0593
      3 C         142.9757  143.7680  161.1586 C.ar    1  UNL1        0.0901
      4 N         142.6317  143.9021  159.7047 N.ar    1  UNL1       -0.2134
      5 C         141.4630  144.7435  159.2850 C.ar    1  UNL1        0.2213
      6 N         140.6383  145.4509  160.3193 N.ar    1  UNL1       -0.1991
      7 C         140.9824  145.3168  161.7731 C.ar    1  UNL1        0.1298
      8 N         140.1577  146.0242  162.8072 N.pl3   1  UNL1       -0.3425
      9 C         142.1511  144.4754  162.1927 C.ar    1  UNL1        0.0522
     10 C         142.4951  144.3413  163.6465 C.ar    1  UNL1        0.0443
     11 C         143.6638  143.4998  164.0662 C.ar    1  UNL1        0.1726
     12 H         139.3907  146.5765  162.5318 H       1  UNL1        0.1437
     13 H         140.3835  145.9362  163.7614 H       1  UNL1        0.1437
     14 C         145.4344  140.5556  163.9548 C.3     1  UNL1        0.2526
     15 O         145.6572  141.9510  163.4517 O.3     1  UNL1       -0.4683
     16 N         141.1190  144.8776  157.8312 N.pl3   1  UNL1       -0.2764
     17 C         141.8727  145.8457  156.9683 C.3     1  UNL1        0.1151
     18 C         140.0211  144.0435  157.2402 C.3     1  UNL1        0.0954
     19 C         139.6533  142.7327  157.8699 C.3     1  UNL1        0.0427
     20 C         138.4690  142.6470  158.7863 C.3     1  UNL1        0.0912
     21 N         138.5516  143.2118  160.1735 N.am    1  UNL1       -0.3023
     22 C         138.2449  142.3424  161.3567 C.2     1  UNL1        0.2496
     23 O         137.8554  140.9083  161.1528 O.2     1  UNL1       -0.2725
     24 H         138.8072  144.1531  160.3074 H       1  UNL1        0.1495
     25 C         138.3275  142.9072  162.7439 C.3     1  UNL1        0.1908
     26 C         139.2261  142.4204  163.8420 C.3     1  UNL1        0.0416
     27 C         138.9801  143.2702  165.0533 C.3     1  UNL1        0.0351
     28 C         137.9295  144.2823  164.7039 C.3     1  UNL1        0.1428
     29 O         137.5262  144.0579  163.2765 O.3     1  UNL1       -0.3471
     30 O         144.0079  143.3658  165.5201 O.3     1  UNL1       -0.4684
     31 C         143.2612  142.3900  166.3806 C.3     1  UNL1        0.2526
@<TRIPOS>BOND
     1    14    15    1
     2    15     1    1
     3     1     2   ar
     4     2     3   ar
     5     3     4   ar
     6     4     5   ar
     7     5    16    1
     8    16    17    1
     9    16    18    1
    10    18    19    1
    11    19    20    1
    12    20    21    1
    13    21    22   am
    14    22    23    2
    15    22    25    1
    16    25    26    1
    17    26    27    1
    18    27    28    1
    19    28    29    1
    20     5     6   ar
    21     6     7   ar
    22     7     8    1
    23     7     9   ar
    24     9    10   ar
    25    10    11   ar
    26    11    30    1
    27    30    31    1
    28    11     1   ar
    29     9     3   ar
    30    29    25    1
    31    21    24    1
    32     8    12    1
    33     8    13    1
@<TRIPOS>MOLECULE
*****
 31 33 0 0 0
SMALL
GASTEIGER

@<TRIPOS>ATOM
      1 C         142.5957  141.5184  167.8512 C.ar    1  UNL1        0.1739
      2 C         142.2149  142.5136  166.7955 C.ar    1  UNL1        0.0593
      3 C         141.9382  142.0526  165.3952 C.ar    1  UNL1        0.0901
      4 N         141.5573  143.0479  164.3394 N.ar    1  UNL1       -0.2134
      5 C         141.2806  142.5870  162.9391 C.ar    1  UNL1        0.2213
      6 N         141.3848  141.1308  162.5945 N.ar    1  UNL1       -0.1991
      7 C         141.7656  140.1356  163.6501 C.ar    1  UNL1        0.1298
      8 N         141.8698  138.6795  163.3055 N.pl3   1  UNL1       -0.3425
      9 C         142.0423  140.5965  165.0505 C.ar    1  UNL1        0.0522
     10 C         142.4232  139.6014  166.1062 C.ar    1  UNL1        0.0443
     11 C         142.6999  140.0623  167.5065 C.ar    1  UNL1        0.1726
     12 H         141.6882  138.3770  162.3864 H       1  UNL1        0.1437
     13 H         142.1198  138.0263  163.9984 H       1  UNL1        0.1437
     14 C         141.9653  142.9793  169.9050 C.3     1  UNL1        0.2526
     15 O         142.8724  141.9793  169.2515 O.3     1  UNL1       -0.4683
     16 N         140.8997  143.5821  161.8834 N.pl3   1  UNL1       -0.2764
     17 C         141.9153  144.0319  160.8753 C.3     1  UNL1        0.1151
     18 C         139.5032  144.1277  161.8358 C.3     1  UNL1        0.0954
     19 C         138.8967  144.7443  163.0613 C.3     1  UNL1        0.0427
     20 C         137.8629  143.9924  163.8460 C.3     1  UNL1        0.0912
     21 N         138.2016  142.6626  164.4517 N.am    1  UNL1       -0.3023
     22 C         137.8499  141.3971  163.7275 C.2     1  UNL1        0.2496
     23 O         137.1594  141.4612  162.3974 O.2     1  UNL1       -0.2725
     24 H         138.6548  142.6205  165.3247 H       1  UNL1        0.1495
     25 C         138.1887  140.0673  164.3333 C.3     1  UNL1        0.1908
     26 C         138.1859  139.7388  165.7969 C.3     1  UNL1        0.0416
     27 C         138.5852  138.3011  165.9501 C.3     1  UNL1        0.0351
     28 C         138.8348  137.7409  164.5811 C.3     1  UNL1        0.1428
     29 O         138.5897  138.8326  163.5819 O.3     1  UNL1       -0.3471
     30 O         143.0808  139.0670  168.5622 O.3     1  UNL1       -0.4684
     31 C         142.2823  138.9745  169.8287 C.3     1  UNL1        0.2526
@<TRIPOS>BOND
     1    14    15    1
     2    15     1    1
     3     1     2   ar
     4     2     3   ar
     5     3     4   ar
     6     4     5   ar
     7     5    16    1
     8    16    17    1
     9    16    18    1
    10    18    19    1
    11    19    20    1
    12    20    21    1
    13    21    22   am
    14    22    23    2
    15    22    25    1
    16    25    26    1
    17    26    27    1
    18    27    28    1
    19    28    29    1
    20     5     6   ar
    21     6     7   ar
    22     7     8    1
    23     7     9   ar
    24     9    10   ar
    25    10    11   ar
    26    11    30    1
    27    30    31    1
    28    11     1   ar
    29     9     3   ar
    30    29    25    1
    31    21    24    1
    32     8    12    1
    33     8    13    1
@<TRIPOS>MOLECULE
*****
 31 33 0 0 0
SMALL
GASTEIGER

@<TRIPOS>ATOM
      1 C         141.7853  141.1254  163.3225 C.ar    1  UNL1        0.1739
      2 C         141.5113  141.7483  164.6592 C.ar    1  UNL1        0.0593
      3 C         141.9782  141.0696  165.9128 C.ar    1  UNL1        0.0901
      4 N         141.7042  141.6926  167.2496 N.ar    1  UNL1       -0.2134
      5 C         142.1710  141.0139  168.5032 C.ar    1  UNL1        0.2213
      6 N         142.9119  139.7123  168.4200 N.ar    1  UNL1       -0.1991
      7 C         143.1859  139.0894  167.0833 C.ar    1  UNL1        0.1298
      8 N         143.9268  137.7878  167.0001 N.pl3   1  UNL1       -0.3425
      9 C         142.7191  139.7680  165.8297 C.ar    1  UNL1        0.0522
     10 C         142.9931  139.1451  164.4930 C.ar    1  UNL1        0.0443
     11 C         142.5262  139.8238  163.2394 C.ar    1  UNL1        0.1726
     12 H         144.2332  137.3424  167.8229 H       1  UNL1        0.1437
     13 H         144.1067  137.3789  166.1228 H       1  UNL1        0.1437
     14 C         142.1309  142.9133  161.4695 C.3     1  UNL1        0.2526
     15 O         141.3185  141.8040  162.0689 O.3     1  UNL1       -0.4683
     16 N         141.8970  141.6369  169.8399 N.pl3   1  UNL1       -0.2764
     17 C         142.8078  142.7038  170.3710 C.3     1  UNL1        0.1151
     18 C         140.7121  141.1929  170.6455 C.3     1  UNL1        0.0954
     19 C         139.3449  141.1886  170.0287 C.3     1  UNL1        0.0427
     20 C         138.8519  139.9700  169.3062 C.3     1  UNL1        0.0912
     21 N         139.1744  139.7775  167.8539 N.am    1  UNL1       -0.3023
     22 C         138.2917  138.9192  166.9970 C.2     1  UNL1        0.2496
     23 O         137.0867  138.2533  167.5924 O.2     1  UNL1       -0.2725
     24 H         139.9653  140.2146  167.4631 H       1  UNL1        0.1495
     25 C         138.6142  138.7267  165.5448 C.3     1  UNL1        0.1908
     26 C         138.3410  139.7078  164.4434 C.3     1  UNL1        0.0416
     27 C         138.8244  139.1068  163.1569 C.3     1  UNL1        0.0351
     28 C         139.3963  137.7543  163.4631 C.3     1  UNL1        0.1428
     29 O         139.2664  137.5194  164.9389 O.3     1  UNL1       -0.3471
     30 O         142.8003  139.2008  161.9026 O.3     1  UNL1       -0.4684
     31 C         144.0980  139.4717  161.2008 C.3     1  UNL1        0.2526
@<TRIPOS>BOND
     1    14    15    1
     2    15     1    1
     3     1     2   ar
     4     2     3   ar
     5     3     4   ar
     6     4     5   ar
     7     5    16    1
     8    16    17    1
     9    16    18    1
    10    18    19    1
    11    19    20    1
    12    20    21    1
    13    21    22   am
    14    22    23    2
    15    22    25    1
    16    25    26    1
    17    26    27    1
    18    27    28    1
    19    28    29    1
    20     5     6   ar
    21     6     7   ar
    22     7     8    1
    23     7     9   ar
    24     9    10   ar
    25    10    11   ar
    26    11    30    1
    27    30    31    1
    28    11     1   ar
    29     9     3   ar
    30    29    25    1
    31    21    24    1
    32     8    12    1
    33     8    13    1
@<TRIPOS>MOLECULE
*****
 31 33 0 0 0
SMALL
GASTEIGER

@<TRIPOS>ATOM
      1 C         141.0911  141.7435  168.2483 C.ar    1  UNL1        0.1739
      2 C         141.5929  142.0074  166.8595 C.ar    1  UNL1        0.0593
      3 C         142.5065  141.0225  166.1923 C.ar    1  UNL1        0.0901
      4 N         143.0082  141.2864  164.8035 N.ar    1  UNL1       -0.2134
      5 C         143.9218  140.3015  164.1363 C.ar    1  UNL1        0.2213
      6 N         144.3337  139.0526  164.8579 N.ar    1  UNL1       -0.1991
      7 C         143.8320  138.7887  166.2466 C.ar    1  UNL1        0.1298
      8 N         144.2439  137.5398  166.9682 N.pl3   1  UNL1       -0.3425
      9 C         142.9184  139.7736  166.9138 C.ar    1  UNL1        0.0522
     10 C         142.4167  139.5097  168.3026 C.ar    1  UNL1        0.0443
     11 C         141.5030  140.4947  168.9698 C.ar    1  UNL1        0.1726
     12 H         144.8436  136.8934  166.5302 H       1  UNL1        0.1437
     13 H         143.9146  137.3666  167.8796 H       1  UNL1        0.1437
     14 C         140.7377  143.7510  169.8591 C.3     1  UNL1        0.2526
     15 O         140.1775  142.7285  168.9155 O.3     1  UNL1       -0.4683
     16 N         144.4235  140.5654  162.7476 N.pl3   1  UNL1       -0.2764
     17 C         144.0730  139.6256  161.6323 C.3     1  UNL1        0.1151
     18 C         145.2758  141.7691  162.4742 C.3     1  UNL1        0.0954
     19 C         144.6816  142.9721  161.8036 C.3     1  UNL1        0.0427
     20 C         144.1351  144.0980  162.6304 C.3     1  UNL1        0.0912
     21 N         142.8913  143.8959  163.4443 N.am    1  UNL1       -0.3023
     22 C         141.5433  144.0468  162.8041 C.2     1  UNL1        0.2496
     23 O         141.4388  144.3999  161.3500 O.2     1  UNL1       -0.2725
     24 H         142.9599  143.6641  164.3987 H       1  UNL1        0.1495
     25 C         140.2997  143.8446  163.6180 C.3     1  UNL1        0.1908
     26 C         139.5601  144.9065  164.3767 C.3     1  UNL1        0.0416
     27 C         138.3806  144.2632  165.0438 C.3     1  UNL1        0.0351
     28 C         138.3911  142.8037  164.6974 C.3     1  UNL1        0.1428
     29 O         139.5772  142.5450  163.8162 O.3     1  UNL1       -0.3471
     30 O         141.0013  140.2307  170.3586 O.3     1  UNL1       -0.4684
     31 C         139.5557  139.8997  170.5835 C.3     1  UNL1        0.2526
@<TRIPOS>BOND
     1    14    15    1
     2    15     1    1
     3     1     2   ar
     4     2     3   ar
     5     3     4   ar
     6     4     5   ar
     7     5    16    1
     8    16    17    1
     9    16    18    1
    10    18    19    1
    11    19    20    1
    12    20    21    1
    13    21    22   am
    14    22    23    2
    15    22    25    1
    16    25    26    1
    17    26    27    1
    18    27    28    1
    19    28    29    1
    20     5     6   ar
    21     6     7   ar
    22     7     8    1
    23     7     9   ar
    24     9    10   ar
    25    10    11   ar
    26    11    30    1
    27    30    31    1
    28    11     1   ar
    29     9     3   ar
    30    29    25    1
    31    21    24    1
    32     8    12    1
    33     8    13    1
@<TRIPOS>MOLECULE
*****
 31 33 0 0 0
SMALL
GASTEIGER

@<TRIPOS>ATOM
      1 C         141.5423  141.9433  168.1434 C.ar    1  UNL1        0.1739
      2 C         141.4815  141.6761  166.6687 C.ar    1  UNL1        0.0593
      3 C         140.4539  140.7315  166.1193 C.ar    1  UNL1        0.0901
      4 N         140.3931  140.4643  164.6445 N.ar    1  UNL1       -0.2134
      5 C         139.3655  139.5198  164.0952 C.ar    1  UNL1        0.2213
      6 N         138.3985  138.8425  165.0207 N.ar    1  UNL1       -0.1991
      7 C         138.4593  139.1098  166.4954 C.ar    1  UNL1        0.1298
      8 N         137.4924  138.4325  167.4208 N.pl3   1  UNL1       -0.3425
      9 C         139.4869  140.0543  167.0447 C.ar    1  UNL1        0.0522
     10 C         139.5477  140.3216  168.5194 C.ar    1  UNL1        0.0443
     11 C         140.5754  141.2661  169.0688 C.ar    1  UNL1        0.1726
     12 H         136.8179  137.8126  167.0602 H       1  UNL1        0.1437
     13 H         137.5322  138.6079  168.3887 H       1  UNL1        0.1437
     14 C         143.7021  142.3631  169.5251 C.3     1  UNL1        0.2526
     15 O         142.5699  142.8879  168.6927 O.3     1  UNL1       -0.4683
     16 N         139.3047  139.2525  162.6205 N.pl3   1  UNL1       -0.2764
     17 C         139.7533  137.9274  162.0793 C.3     1  UNL1        0.1151
     18 C         138.7954  140.3103  161.6869 C.3     1  UNL1        0.0954
     19 C         137.7211  141.2549  162.1382 C.3     1  UNL1        0.0427
     20 C         138.0554  142.6887  162.4255 C.3     1  UNL1        0.0912
     21 N         139.3277  143.0333  163.1414 N.am    1  UNL1       -0.3023
     22 C         140.5452  143.4277  162.3592 C.2     1  UNL1        0.2496
     23 O         140.4906  143.4776  160.8611 O.2     1  UNL1       -0.2725
     24 H         139.3636  143.0005  164.1247 H       1  UNL1        0.1495
     25 C         141.8175  143.7723  163.0752 C.3     1  UNL1        0.1908
     26 C         142.2602  145.1492  163.4730 C.3     1  UNL1        0.0416
     27 C         143.5868  145.0284  164.1627 C.3     1  UNL1        0.0351
     28 C         143.9640  143.5768  164.1912 C.3     1  UNL1        0.1428
     29 O         142.8704  142.8005  163.5190 O.3     1  UNL1       -0.3471
     30 O         140.6361  141.5334  170.5436 O.3     1  UNL1       -0.4684
     31 C         140.9839  140.4253  171.4929 C.3     1  UNL1        0.2526
@<TRIPOS>BOND
     1    14    15    1
     2    15     1    1
     3     1     2   ar
     4     2     3   ar
     5     3     4   ar
     6     4     5   ar
     7     5    16    1
     8    16    17    1
     9    16    18    1
    10    18    19    1
    11    19    20    1
    12    20    21    1
    13    21    22   am
    14    22    23    2
    15    22    25    1
    16    25    26    1
    17    26    27    1
    18    27    28    1
    19    28    29    1
    20     5     6   ar
    21     6     7   ar
    22     7     8    1
    23     7     9   ar
    24     9    10   ar
    25    10    11   ar
    26    11    30    1
    27    30    31    1
    28    11     1   ar
    29     9     3   ar
    30    29    25    1
    31    21    24    1
    32     8    12    1
    33     8    13    1
