@<TRIPOS>MOLECULE
*****
 36 40 0 0 0
SMALL
GASTEIGER

@<TRIPOS>ATOM
      1 C         141.0119  144.7368  160.0770 C.3     1  UNL1        0.2588
      2 O         142.3451  146.1274  158.3338 O.2     1  UNL1       -0.2708
      3 C         141.0549  145.5194  158.7980 C.2     1  UNL1        0.2689
      4 N         139.8076  145.6939  157.9832 N.am    1  UNL1       -0.2664
      5 H         138.9608  145.2948  158.2879 H       1  UNL1        0.1564
      6 C         139.8506  146.4765  156.7042 C.ar    1  UNL1        0.1343
      7 C         139.0917  147.7650  156.5875 C.ar    1  UNL1        0.0354
      8 C         139.1346  148.5475  155.3086 C.ar    1  UNL1        0.0158
      9 C         139.9366  148.0415  154.1463 C.ar    1  UNL1        0.0769
     10 CL        139.9796  148.8240  152.8673 Cl      1  UNL1       -0.0806
     11 C         140.6955  146.7530  154.2630 C.ar    1  UNL1        0.1116
     12 N         140.6525  145.9704  155.5420 N.ar    1  UNL1       -0.2281
     13 C         141.1141  143.2407  160.0446 C.3     1  UNL1        0.1261
     14 N         139.9368  142.3998  160.4407 N.3     1  UNL1       -0.2650
     15 C         138.5016  142.3153  160.0126 C.3     1  UNL1        0.1033
     16 C         138.2719  141.2105  161.0008 C.3     1  UNL1        0.1423
     17 O         137.0947  140.3695  161.3968 O.3     1  UNL1       -0.3816
     18 C         139.7070  141.2949  161.4288 C.3     1  UNL1        0.1033
     19 H         136.3213  140.6282  160.8716 H       1  UNL1        0.2105
     20 O         140.8666  145.4505  161.3883 O.3     1  UNL1       -0.4529
     21 C         140.0428  144.8436  162.4852 C.ar    1  UNL1        0.2312
     22 N         138.5473  144.9533  162.4483 N.ar    1  UNL1       -0.1892
     23 C         137.7235  144.3464  163.5452 C.ar    1  UNL1        0.2029
     24 N         138.3953  143.6299  164.6789 N.ar    1  UNL1       -0.2046
     25 C         139.8908  143.5203  164.7158 C.ar    1  UNL1        0.1715
     26 C         140.7145  144.1271  163.6190 C.ar    1  UNL1        0.1098
     27 C         142.1592  143.8610  163.9228 C.ar    1  UNL1        0.1283
     28 N         142.2282  143.0897  165.2074 N.ar    1  UNL1       -0.1619
     29 N         140.8263  142.8791  165.6975 N.ar    1  UNL1       -0.2111
     30 C         140.4295  142.1546  166.9495 C.ar    1  UNL1        0.0949
     31 C         140.5711  142.8277  168.2825 C.ar    1  UNL1        0.0201
     32 C         140.1743  142.1031  169.5345 C.ar    1  UNL1        0.0016
     33 C         139.6359  140.7054  169.4536 C.ar    1  UNL1        0.0010
     34 C         139.4943  140.0324  168.1207 C.ar    1  UNL1        0.0129
     35 C         139.8911  140.7569  166.8686 C.ar    1  UNL1        0.0753
     36 CL        139.7495  140.0837  165.5357 Cl      1  UNL1       -0.0807
@<TRIPOS>BOND
     1     2     3    2
     2     3     4   am
     3     4     6    1
     4     6     7   ar
     5     7     8   ar
     6     8     9   ar
     7     9    10    1
     8     9    11   ar
     9    11    12   ar
    10     3     1    1
    11     1    13    1
    12    13    14    1
    13    14    15    1
    14    15    16    1
    15    16    17    1
    16    16    18    1
    17     1    20    1
    18    20    21    1
    19    21    22   ar
    20    22    23   ar
    21    23    24   ar
    22    24    25   ar
    23    25    26   ar
    24    26    27   ar
    25    27    28   ar
    26    28    29   ar
    27    29    30    1
    28    30    31   ar
    29    31    32   ar
    30    32    33   ar
    31    33    34   ar
    32    34    35   ar
    33    35    36    1
    34    12     6   ar
    35    18    14    1
    36    26    21   ar
    37    35    30   ar
    38    29    25   ar
    39     4     5    1
    40    17    19    1
@<TRIPOS>MOLECULE
*****
 36 40 0 0 0
SMALL
GASTEIGER

@<TRIPOS>ATOM
      1 C         139.3426  138.2601  161.3127 C.3     1  UNL1        0.2588
      2 O         139.2836  138.5243  158.7287 O.2     1  UNL1       -0.2708
      3 C         140.0628  138.3824  160.0025 C.2     1  UNL1        0.2689
      4 N         141.5622  138.3627  159.9662 N.am    1  UNL1       -0.2664
      5 H         142.0737  138.2695  160.8023 H       1  UNL1        0.1564
      6 C         142.2824  138.4849  158.6561 C.ar    1  UNL1        0.1343
      7 C         142.8744  139.8006  158.2456 C.ar    1  UNL1        0.0354
      8 C         143.5946  139.9228  156.9355 C.ar    1  UNL1        0.0158
      9 C         143.7228  138.7294  156.0359 C.ar    1  UNL1        0.0769
     10 CL        144.4430  138.8516  154.7258 Cl      1  UNL1       -0.0806
     11 C         143.1309  137.4137  156.4465 C.ar    1  UNL1        0.1116
     12 N         142.4107  137.2915  157.7566 N.ar    1  UNL1       -0.2281
     13 C         138.0056  138.9144  161.4975 C.3     1  UNL1        0.1261
     14 N         137.9183  140.3980  161.7006 N.3     1  UNL1       -0.2650
     15 C         137.4430  141.2908  162.8084 C.3     1  UNL1        0.1033
     16 C         137.7948  142.4962  161.9878 C.3     1  UNL1        0.1423
     17 O         137.7075  143.9798  162.1910 O.3     1  UNL1       -0.3816
     18 C         138.2701  141.6035  160.8801 C.3     1  UNL1        0.1033
     19 H         137.3321  144.1648  163.0660 H       1  UNL1        0.2105
     20 O         139.9596  137.4836  162.4380 O.3     1  UNL1       -0.4529
     21 C         140.7599  138.1939  163.4892 C.ar    1  UNL1        0.2312
     22 N         142.2442  138.3401  163.3306 N.ar    1  UNL1       -0.1892
     23 C         143.0445  139.0505  164.3817 C.ar    1  UNL1        0.2029
     24 N         142.3603  139.6146  165.5915 N.ar    1  UNL1       -0.2046
     25 C         140.8759  139.4685  165.7502 C.ar    1  UNL1        0.1715
     26 C         140.0757  138.7581  164.6990 C.ar    1  UNL1        0.1098
     27 C         138.6376  138.7681  165.1255 C.ar    1  UNL1        0.1283
     28 N         138.5491  139.4847  166.4403 N.ar    1  UNL1       -0.1619
     29 N         139.9325  139.9175  166.8263 N.ar    1  UNL1       -0.2111
     30 C         140.3067  140.6677  168.0702 C.ar    1  UNL1        0.0949
     31 C         140.4717  139.9336  169.3678 C.ar    1  UNL1        0.0201
     32 C         140.8459  140.6838  170.6117 C.ar    1  UNL1        0.0016
     33 C         141.0551  142.1681  170.5580 C.ar    1  UNL1        0.0010
     34 C         140.8901  142.9022  169.2604 C.ar    1  UNL1        0.0129
     35 C         140.5159  142.1521  168.0165 C.ar    1  UNL1        0.0753
     36 CL        140.3509  142.8863  166.7189 Cl      1  UNL1       -0.0807
@<TRIPOS>BOND
     1     2     3    2
     2     3     4   am
     3     4     6    1
     4     6     7   ar
     5     7     8   ar
     6     8     9   ar
     7     9    10    1
     8     9    11   ar
     9    11    12   ar
    10     3     1    1
    11     1    13    1
    12    13    14    1
    13    14    15    1
    14    15    16    1
    15    16    17    1
    16    16    18    1
    17     1    20    1
    18    20    21    1
    19    21    22   ar
    20    22    23   ar
    21    23    24   ar
    22    24    25   ar
    23    25    26   ar
    24    26    27   ar
    25    27    28   ar
    26    28    29   ar
    27    29    30    1
    28    30    31   ar
    29    31    32   ar
    30    32    33   ar
    31    33    34   ar
    32    34    35   ar
    33    35    36    1
    34    12     6   ar
    35    18    14    1
    36    26    21   ar
    37    35    30   ar
    38    29    25   ar
    39     4     5    1
    40    17    19    1
@<TRIPOS>MOLECULE
*****
 36 40 0 0 0
SMALL
GASTEIGER

@<TRIPOS>ATOM
      1 C         141.5842  138.3437  161.1023 C.3     1  UNL1        0.2588
      2 O         144.0882  138.4246  160.4142 O.2     1  UNL1       -0.2708
      3 C         142.6888  138.9496  160.2881 C.2     1  UNL1        0.2689
      4 N         142.3939  140.0804  159.3478 N.am    1  UNL1       -0.2664
      5 H         141.4753  140.4250  159.2650 H       1  UNL1        0.1564
      6 C         143.4984  140.6863  158.5336 C.ar    1  UNL1        0.1343
      7 C         143.9069  140.0545  157.2359 C.ar    1  UNL1        0.0354
      8 C         145.0114  140.6604  156.4217 C.ar    1  UNL1        0.0158
      9 C         145.7074  141.8981  156.9052 C.ar    1  UNL1        0.0769
     10 CL        146.8119  142.5040  156.0910 Cl      1  UNL1       -0.0806
     11 C         145.2989  142.5299  158.2029 C.ar    1  UNL1        0.1116
     12 N         144.1943  141.9240  159.0171 N.ar    1  UNL1       -0.2281
     13 C         140.1725  138.3810  160.5966 C.3     1  UNL1        0.1261
     14 N         139.1480  139.2257  161.2943 N.3     1  UNL1       -0.2650
     15 C         137.7372  139.0148  161.7585 C.3     1  UNL1        0.1033
     16 C         137.6991  140.4203  162.2810 C.3     1  UNL1        0.1423
     17 O         136.6746  141.2650  162.9787 O.3     1  UNL1       -0.3816
     18 C         139.1097  140.6312  161.8169 C.3     1  UNL1        0.1033
     19 H         135.8620  140.7502  163.1039 H       1  UNL1        0.2105
     20 O         141.8914  137.7005  162.4222 O.3     1  UNL1       -0.4529
     21 C         142.3051  138.5459  163.5902 C.ar    1  UNL1        0.2312
     22 N         143.7211  139.0275  163.7033 N.ar    1  UNL1       -0.1892
     23 C         144.1348  139.8729  164.8712 C.ar    1  UNL1        0.2029
     24 N         143.1324  140.2367  165.9262 N.ar    1  UNL1       -0.2046
     25 C         141.7163  139.7551  165.8131 C.ar    1  UNL1        0.1715
     26 C         141.3027  138.9097  164.6451 C.ar    1  UNL1        0.1098
     27 C         139.8468  138.5838  164.8013 C.ar    1  UNL1        0.1283
     28 N         139.3607  139.2277  166.0658 N.ar    1  UNL1       -0.1619
     29 N         140.5162  139.9516  166.6911 N.ar    1  UNL1       -0.2111
     30 C         140.4781  140.7346  167.9700 C.ar    1  UNL1        0.0949
     31 C         140.4628  140.0183  169.2878 C.ar    1  UNL1        0.0201
     32 C         140.4247  140.8013  170.5666 C.ar    1  UNL1        0.0016
     33 C         140.4020  142.3006  170.5277 C.ar    1  UNL1        0.0010
     34 C         140.4173  143.0169  169.2099 C.ar    1  UNL1        0.0129
     35 C         140.4554  142.2339  167.9310 C.ar    1  UNL1        0.0753
     36 CL        140.4708  142.9503  166.6133 Cl      1  UNL1       -0.0807
@<TRIPOS>BOND
     1     2     3    2
     2     3     4   am
     3     4     6    1
     4     6     7   ar
     5     7     8   ar
     6     8     9   ar
     7     9    10    1
     8     9    11   ar
     9    11    12   ar
    10     3     1    1
    11     1    13    1
    12    13    14    1
    13    14    15    1
    14    15    16    1
    15    16    17    1
    16    16    18    1
    17     1    20    1
    18    20    21    1
    19    21    22   ar
    20    22    23   ar
    21    23    24   ar
    22    24    25   ar
    23    25    26   ar
    24    26    27   ar
    25    27    28   ar
    26    28    29   ar
    27    29    30    1
    28    30    31   ar
    29    31    32   ar
    30    32    33   ar
    31    33    34   ar
    32    34    35   ar
    33    35    36    1
    34    12     6   ar
    35    18    14    1
    36    26    21   ar
    37    35    30   ar
    38    29    25   ar
    39     4     5    1
    40    17    19    1
@<TRIPOS>MOLECULE
*****
 36 40 0 0 0
SMALL
GASTEIGER

@<TRIPOS>ATOM
      1 C         138.1186  141.6493  160.7623 C.3     1  UNL1        0.2588
      2 O         139.4485  141.0399  158.6151 O.2     1  UNL1       -0.2708
      3 C         138.9406  142.0698  159.5800 C.2     1  UNL1        0.2689
      4 N         139.2545  143.5204  159.3628 N.am    1  UNL1       -0.2664
      5 H         138.9211  144.1965  159.9961 H       1  UNL1        0.1564
      6 C         140.0764  143.9411  158.1807 C.ar    1  UNL1        0.1343
      7 C         141.5713  144.0009  158.2896 C.ar    1  UNL1        0.0354
      8 C         142.3931  144.4215  157.1074 C.ar    1  UNL1        0.0158
      9 C         141.7202  144.7823  155.8163 C.ar    1  UNL1        0.0769
     10 CL        142.5421  145.2029  154.6341 Cl      1  UNL1       -0.0806
     11 C         140.2254  144.7224  155.7073 C.ar    1  UNL1        0.1116
     12 N         139.4035  144.3018  156.8896 N.ar    1  UNL1       -0.2281
     13 C         137.7383  140.2089  160.9371 C.3     1  UNL1        0.1261
     14 N         138.7400  139.2281  161.4706 N.3     1  UNL1       -0.2650
     15 C         140.2365  139.1254  161.4543 C.3     1  UNL1        0.1033
     16 C         140.1566  137.8411  162.2252 C.3     1  UNL1        0.1423
     17 O         141.1583  136.8603  162.7587 O.3     1  UNL1       -0.3816
     18 C         138.6603  137.9438  162.2415 C.3     1  UNL1        0.1033
     19 H         142.0538  137.1583  162.5344 H       1  UNL1        0.2105
     20 O         137.6770  142.6691  161.7697 O.3     1  UNL1       -0.4529
     21 C         138.6706  143.2554  162.7284 C.ar    1  UNL1        0.2312
     22 N         139.3664  144.5416  162.3942 N.ar    1  UNL1       -0.1892
     23 C         140.3599  145.1278  163.3529 C.ar    1  UNL1        0.2029
     24 N         140.6577  144.4279  164.6458 N.ar    1  UNL1       -0.2046
     25 C         139.9619  143.1418  164.9799 C.ar    1  UNL1        0.1715
     26 C         138.9684  142.5555  164.0212 C.ar    1  UNL1        0.1098
     27 C         138.4428  141.2838  164.6183 C.ar    1  UNL1        0.1283
     28 N         139.1115  141.0841  165.9461 N.ar    1  UNL1       -0.1619
     29 N         140.0504  142.2324  166.1695 N.ar    1  UNL1       -0.2111
     30 C         140.9243  142.4357  167.3716 C.ar    1  UNL1        0.0949
     31 C         140.3522  143.0342  168.6223 C.ar    1  UNL1        0.0201
     32 C         141.2261  143.2375  169.8243 C.ar    1  UNL1        0.0016
     33 C         142.6723  142.8422  169.7757 C.ar    1  UNL1        0.0010
     34 C         143.2444  142.2436  168.5250 C.ar    1  UNL1        0.0129
     35 C         142.3705  142.0404  167.3229 C.ar    1  UNL1        0.0753
     36 CL        142.9427  141.4418  166.0722 Cl      1  UNL1       -0.0807
@<TRIPOS>BOND
     1     2     3    2
     2     3     4   am
     3     4     6    1
     4     6     7   ar
     5     7     8   ar
     6     8     9   ar
     7     9    10    1
     8     9    11   ar
     9    11    12   ar
    10     3     1    1
    11     1    13    1
    12    13    14    1
    13    14    15    1
    14    15    16    1
    15    16    17    1
    16    16    18    1
    17     1    20    1
    18    20    21    1
    19    21    22   ar
    20    22    23   ar
    21    23    24   ar
    22    24    25   ar
    23    25    26   ar
    24    26    27   ar
    25    27    28   ar
    26    28    29   ar
    27    29    30    1
    28    30    31   ar
    29    31    32   ar
    30    32    33   ar
    31    33    34   ar
    32    34    35   ar
    33    35    36    1
    34    12     6   ar
    35    18    14    1
    36    26    21   ar
    37    35    30   ar
    38    29    25   ar
    39     4     5    1
    40    17    19    1
@<TRIPOS>MOLECULE
*****
 36 40 0 0 0
SMALL
GASTEIGER

@<TRIPOS>ATOM
      1 C         141.2335  144.5907  159.9851 C.3     1  UNL1        0.2588
      2 O         142.4599  146.0942  158.2573 O.2     1  UNL1       -0.2708
      3 C         141.2082  145.4200  158.7354 C.2     1  UNL1        0.2689
      4 N         139.9312  145.5751  157.9640 N.am    1  UNL1       -0.2664
      5 H         139.1097  145.1326  158.2778 H       1  UNL1        0.1564
      6 C         139.9059  146.4044  156.7144 C.ar    1  UNL1        0.1343
      7 C         140.7257  145.9960  155.5265 C.ar    1  UNL1        0.0354
      8 C         140.7004  146.8253  154.2769 C.ar    1  UNL1        0.0158
      9 C         139.8552  148.0630  154.2151 C.ar    1  UNL1        0.0769
     10 CL        139.8298  148.8923  152.9655 Cl      1  UNL1       -0.0806
     11 C         139.0353  148.4714  155.4030 C.ar    1  UNL1        0.1116
     12 N         139.0607  147.6420  156.6526 N.ar    1  UNL1       -0.2281
     13 C         141.0771  143.1013  159.9001 C.3     1  UNL1        0.1261
     14 N         139.8920  142.4343  160.5332 N.3     1  UNL1       -0.2650
     15 C         138.4104  142.6681  160.5191 C.3     1  UNL1        0.1033
     16 C         138.2161  141.4910  161.4284 C.3     1  UNL1        0.1423
     17 O         137.0310  140.8240  162.0614 O.3     1  UNL1       -0.3816
     18 C         139.6976  141.2573  161.4424 C.3     1  UNL1        0.1033
     19 H         136.2206  141.2884  161.7998 H       1  UNL1        0.2105
     20 O         141.4153  145.2508  161.3198 O.3     1  UNL1       -0.4529
     21 C         141.8646  144.4429  162.5011 C.ar    1  UNL1        0.2312
     22 N         143.2956  144.0070  162.6111 N.ar    1  UNL1       -0.1892
     23 C         143.7448  143.1991  163.7924 C.ar    1  UNL1        0.2029
     24 N         142.7630  142.8272  164.8637 N.ar    1  UNL1       -0.2046
     25 C         141.3320  143.2631  164.7537 C.ar    1  UNL1        0.1715
     26 C         140.8828  144.0709  163.5724 C.ar    1  UNL1        0.1098
     27 C         139.4190  144.3557  163.7352 C.ar    1  UNL1        0.1283
     28 N         138.9637  143.7238  165.0171 N.ar    1  UNL1       -0.1619
     29 N         140.1459  143.0485  165.6466 N.ar    1  UNL1       -0.2111
     30 C         140.1428  142.2916  166.9416 C.ar    1  UNL1        0.0949
     31 C         140.4935  142.9922  168.2207 C.ar    1  UNL1        0.0201
     32 C         140.4903  142.2352  169.5157 C.ar    1  UNL1        0.0016
     33 C         140.1364  140.7777  169.5316 C.ar    1  UNL1        0.0010
     34 C         139.7856  140.0771  168.2525 C.ar    1  UNL1        0.0129
     35 C         139.7888  140.8341  166.9575 C.ar    1  UNL1        0.0753
     36 CL        139.4380  140.1334  165.6785 Cl      1  UNL1       -0.0807
@<TRIPOS>BOND
     1     2     3    2
     2     3     4   am
     3     4     6    1
     4     6     7   ar
     5     7     8   ar
     6     8     9   ar
     7     9    10    1
     8     9    11   ar
     9    11    12   ar
    10     3     1    1
    11     1    13    1
    12    13    14    1
    13    14    15    1
    14    15    16    1
    15    16    17    1
    16    16    18    1
    17     1    20    1
    18    20    21    1
    19    21    22   ar
    20    22    23   ar
    21    23    24   ar
    22    24    25   ar
    23    25    26   ar
    24    26    27   ar
    25    27    28   ar
    26    28    29   ar
    27    29    30    1
    28    30    31   ar
    29    31    32   ar
    30    32    33   ar
    31    33    34   ar
    32    34    35   ar
    33    35    36    1
    34    12     6   ar
    35    18    14    1
    36    26    21   ar
    37    35    30   ar
    38    29    25   ar
    39     4     5    1
    40    17    19    1
@<TRIPOS>MOLECULE
*****
 36 40 0 0 0
SMALL
GASTEIGER

@<TRIPOS>ATOM
      1 C         140.4905  138.3507  160.6405 C.3     1  UNL1        0.2588
      2 O         142.9932  137.9819  160.0479 O.2     1  UNL1       -0.2708
      3 C         141.7098  138.7342  159.8553 C.2     1  UNL1        0.2689
      4 N         141.6457  139.8699  158.8775 N.am    1  UNL1       -0.2664
      5 H         140.8033  140.3636  158.7511 H       1  UNL1        0.1564
      6 C         142.8648  140.2533  158.0924 C.ar    1  UNL1        0.1343
      7 C         143.2340  139.4855  156.8578 C.ar    1  UNL1        0.0354
      8 C         144.4532  139.8690  156.0726 C.ar    1  UNL1        0.0158
      9 C         145.3032  141.0203  156.5220 C.ar    1  UNL1        0.0769
     10 CL        146.5224  141.4038  155.7369 Cl      1  UNL1       -0.0806
     11 C         144.9340  141.7882  157.7566 C.ar    1  UNL1        0.1116
     12 N         143.7148  141.4046  158.5418 N.ar    1  UNL1       -0.2281
     13 C         139.1458  138.8856  160.2463 C.3     1  UNL1        0.1261
     14 N         138.7374  140.2680  160.6615 N.3     1  UNL1       -0.2650
     15 C         138.3696  141.5282  159.9358 C.3     1  UNL1        0.1033
     16 C         138.1598  142.2228  161.2487 C.3     1  UNL1        0.1423
     17 O         137.7514  143.6052  161.6638 O.3     1  UNL1       -0.3816
     18 C         138.5276  140.9627  161.9743 C.3     1  UNL1        0.1033
     19 H         137.5953  144.1470  160.8745 H       1  UNL1        0.2105
     20 O         140.6161  137.4323  161.8198 O.3     1  UNL1       -0.4529
     21 C         140.3464  137.9465  163.2029 C.ar    1  UNL1        0.2312
     22 N         138.9683  137.8431  163.7860 N.ar    1  UNL1       -0.1892
     23 C         138.6986  138.3573  165.1690 C.ar    1  UNL1        0.2029
     24 N         139.8071  138.9749  165.9690 N.ar    1  UNL1       -0.2046
     25 C         141.1852  139.0783  165.3859 C.ar    1  UNL1        0.1715
     26 C         141.4549  138.5641  164.0028 C.ar    1  UNL1        0.1098
     27 C         142.9036  138.8011  163.6944 C.ar    1  UNL1        0.1283
     28 N         143.5293  139.4618  164.8869 N.ar    1  UNL1       -0.1619
     29 N         142.4672  139.6331  165.9323 N.ar    1  UNL1       -0.2111
     30 C         142.6544  140.2507  167.2863 C.ar    1  UNL1        0.0949
     31 C         142.5252  139.4072  168.5199 C.ar    1  UNL1        0.0201
     32 C         142.7124  140.0248  169.8739 C.ar    1  UNL1        0.0016
     33 C         143.0287  141.4862  169.9945 C.ar    1  UNL1        0.0010
     34 C         143.1578  142.3297  168.7609 C.ar    1  UNL1        0.0129
     35 C         142.9707  141.7121  167.4069 C.ar    1  UNL1        0.0753
     36 CL        143.0998  142.5557  166.1734 Cl      1  UNL1       -0.0807
@<TRIPOS>BOND
     1     2     3    2
     2     3     4   am
     3     4     6    1
     4     6     7   ar
     5     7     8   ar
     6     8     9   ar
     7     9    10    1
     8     9    11   ar
     9    11    12   ar
    10     3     1    1
    11     1    13    1
    12    13    14    1
    13    14    15    1
    14    15    16    1
    15    16    17    1
    16    16    18    1
    17     1    20    1
    18    20    21    1
    19    21    22   ar
    20    22    23   ar
    21    23    24   ar
    22    24    25   ar
    23    25    26   ar
    24    26    27   ar
    25    27    28   ar
    26    28    29   ar
    27    29    30    1
    28    30    31   ar
    29    31    32   ar
    30    32    33   ar
    31    33    34   ar
    32    34    35   ar
    33    35    36    1
    34    12     6   ar
    35    18    14    1
    36    26    21   ar
    37    35    30   ar
    38    29    25   ar
    39     4     5    1
    40    17    19    1
@<TRIPOS>MOLECULE
*****
 36 40 0 0 0
SMALL
GASTEIGER

@<TRIPOS>ATOM
      1 C         138.3610  141.3964  160.5486 C.3     1  UNL1        0.2588
      2 O         139.3324  141.3193  158.1401 O.2     1  UNL1       -0.2708
      3 C         139.0771  140.6535  159.4598 C.2     1  UNL1        0.2689
      4 N         139.5380  139.2449  159.6907 N.am    1  UNL1       -0.2664
      5 H         139.3705  138.8079  160.5569 H       1  UNL1        0.1564
      6 C         140.2541  138.5020  158.6020 C.ar    1  UNL1        0.1343
      7 C         141.7386  138.3021  158.6816 C.ar    1  UNL1        0.0354
      8 C         142.4547  137.5592  157.5929 C.ar    1  UNL1        0.0158
      9 C         141.6863  137.0163  156.4245 C.ar    1  UNL1        0.0769
     10 CL        142.4024  136.2734  155.3358 Cl      1  UNL1       -0.0806
     11 C         140.2018  137.2162  156.3450 C.ar    1  UNL1        0.1116
     12 N         139.4857  137.9591  157.4338 N.ar    1  UNL1       -0.2281
     13 C         138.4958  142.8866  160.6538 C.3     1  UNL1        0.1261
     14 N         139.8061  143.4944  161.0582 N.3     1  UNL1       -0.2650
     15 C         140.3108  144.8933  161.2546 C.3     1  UNL1        0.1033
     16 C         141.6592  144.3540  161.6301 C.3     1  UNL1        0.1423
     17 O         142.9695  144.9619  162.0345 O.3     1  UNL1       -0.3816
     18 C         141.1546  142.9553  161.4337 C.3     1  UNL1        0.1033
     19 H         142.8882  145.9284  162.0445 H       1  UNL1        0.2105
     20 O         137.5101  140.6490  161.5321 O.3     1  UNL1       -0.4529
     21 C         138.1543  139.8458  162.6229 C.ar    1  UNL1        0.2312
     22 N         138.2850  138.3582  162.4818 N.ar    1  UNL1       -0.1892
     23 C         138.9292  137.5551  163.5726 C.ar    1  UNL1        0.2029
     24 N         139.4427  138.2396  164.8046 N.ar    1  UNL1       -0.2046
     25 C         139.3120  139.7272  164.9458 C.ar    1  UNL1        0.1715
     26 C         138.6678  140.5303  163.8549 C.ar    1  UNL1        0.1098
     27 C         138.6789  141.9712  164.2718 C.ar    1  UNL1        0.1283
     28 N         139.3300  142.0586  165.6203 N.ar    1  UNL1       -0.1619
     29 N         139.7213  140.6717  166.0368 N.ar    1  UNL1       -0.2111
     30 C         140.4023  140.2954  167.3192 C.ar    1  UNL1        0.0949
     31 C         139.6295  140.2882  168.6048 C.ar    1  UNL1        0.0201
     32 C         140.3104  139.9120  169.8872 C.ar    1  UNL1        0.0016
     33 C         141.7643  139.5428  169.8841 C.ar    1  UNL1        0.0010
     34 C         142.5371  139.5499  168.5986 C.ar    1  UNL1        0.0129
     35 C         141.8561  139.9262  167.3162 C.ar    1  UNL1        0.0753
     36 CL        142.6290  139.9334  166.0306 Cl      1  UNL1       -0.0807
@<TRIPOS>BOND
     1     2     3    2
     2     3     4   am
     3     4     6    1
     4     6     7   ar
     5     7     8   ar
     6     8     9   ar
     7     9    10    1
     8     9    11   ar
     9    11    12   ar
    10     3     1    1
    11     1    13    1
    12    13    14    1
    13    14    15    1
    14    15    16    1
    15    16    17    1
    16    16    18    1
    17     1    20    1
    18    20    21    1
    19    21    22   ar
    20    22    23   ar
    21    23    24   ar
    22    24    25   ar
    23    25    26   ar
    24    26    27   ar
    25    27    28   ar
    26    28    29   ar
    27    29    30    1
    28    30    31   ar
    29    31    32   ar
    30    32    33   ar
    31    33    34   ar
    32    34    35   ar
    33    35    36    1
    34    12     6   ar
    35    18    14    1
    36    26    21   ar
    37    35    30   ar
    38    29    25   ar
    39     4     5    1
    40    17    19    1
@<TRIPOS>MOLECULE
*****
 36 40 0 0 0
SMALL
GASTEIGER

@<TRIPOS>ATOM
      1 C         139.3836  138.5100  163.6895 C.3     1  UNL1        0.2588
      2 O         141.1098  138.4800  165.6310 O.2     1  UNL1       -0.2708
      3 C         139.8507  139.0202  165.0206 C.2     1  UNL1        0.2689
      4 N         139.0586  140.0707  165.7411 N.am    1  UNL1       -0.2664
      5 H         138.2322  140.4252  165.3404 H       1  UNL1        0.1564
      6 C         139.5257  140.5809  167.0720 C.ar    1  UNL1        0.1343
      7 C         140.2877  141.8702  167.1556 C.ar    1  UNL1        0.0354
      8 C         140.7548  142.3804  168.4866 C.ar    1  UNL1        0.0158
      9 C         140.4598  141.6014  169.7340 C.ar    1  UNL1        0.0769
     10 CL        140.9269  142.1116  171.0650 Cl      1  UNL1       -0.0806
     11 C         139.6977  140.3121  169.6505 C.ar    1  UNL1        0.1116
     12 N         139.2307  139.8018  168.3194 N.ar    1  UNL1       -0.2281
     13 C         140.1938  137.4849  162.9529 C.3     1  UNL1        0.1261
     14 N         141.4820  137.8796  162.2935 N.3     1  UNL1       -0.2650
     15 C         141.9291  138.0834  160.8762 C.3     1  UNL1        0.1033
     16 C         143.3037  138.4377  161.3609 C.3     1  UNL1        0.1423
     17 O         144.5919  138.8323  160.7015 O.3     1  UNL1       -0.3816
     18 C         142.8566  138.2339  162.7780 C.3     1  UNL1        0.1033
     19 H         144.4697  138.8525  159.7394 H       1  UNL1        0.2105
     20 O         138.1062  139.0249  163.0953 O.3     1  UNL1       -0.4529
     21 C         138.0756  140.3710  162.4341 C.ar    1  UNL1        0.2312
     22 N         137.7700  141.5969  163.2426 N.ar    1  UNL1       -0.1892
     23 C         137.7395  142.9429  162.5814 C.ar    1  UNL1        0.2029
     24 N         138.0146  143.0631  161.1118 N.ar    1  UNL1       -0.2046
     25 C         138.3203  141.8372  160.3033 C.ar    1  UNL1        0.1715
     26 C         138.3508  140.4911  160.9645 C.ar    1  UNL1        0.1098
     27 C         138.6791  139.4679  159.9179 C.ar    1  UNL1        0.1283
     28 N         138.8515  140.1816  158.6099 N.ar    1  UNL1       -0.1619
     29 N         138.6297  141.6459  158.8481 N.ar    1  UNL1       -0.2111
     30 C         138.7043  142.7288  157.8129 C.ar    1  UNL1        0.0949
     31 C         139.7740  143.7767  157.8993 C.ar    1  UNL1        0.0201
     32 C         139.8486  144.8597  156.8641 C.ar    1  UNL1        0.0016
     33 C         138.8534  144.8947  155.7423 C.ar    1  UNL1        0.0010
     34 C         137.7837  143.8468  155.6558 C.ar    1  UNL1        0.0129
     35 C         137.7091  142.7639  156.6911 C.ar    1  UNL1        0.0753
     36 CL        136.6394  141.7160  156.6045 Cl      1  UNL1       -0.0807
@<TRIPOS>BOND
     1     2     3    2
     2     3     4   am
     3     4     6    1
     4     6     7   ar
     5     7     8   ar
     6     8     9   ar
     7     9    10    1
     8     9    11   ar
     9    11    12   ar
    10     3     1    1
    11     1    13    1
    12    13    14    1
    13    14    15    1
    14    15    16    1
    15    16    17    1
    16    16    18    1
    17     1    20    1
    18    20    21    1
    19    21    22   ar
    20    22    23   ar
    21    23    24   ar
    22    24    25   ar
    23    25    26   ar
    24    26    27   ar
    25    27    28   ar
    26    28    29   ar
    27    29    30    1
    28    30    31   ar
    29    31    32   ar
    30    32    33   ar
    31    33    34   ar
    32    34    35   ar
    33    35    36    1
    34    12     6   ar
    35    18    14    1
    36    26    21   ar
    37    35    30   ar
    38    29    25   ar
    39     4     5    1
    40    17    19    1
@<TRIPOS>MOLECULE
*****
 36 40 0 0 0
SMALL
GASTEIGER

@<TRIPOS>ATOM
      1 C         143.6259  141.6570  159.7418 C.3     1  UNL1        0.2588
      2 O         141.3363  141.9480  158.5489 O.2     1  UNL1       -0.2708
      3 C         142.6759  142.4972  158.9407 C.2     1  UNL1        0.2689
      4 N         143.0657  143.8867  158.5315 N.am    1  UNL1       -0.2664
      5 H         143.9450  144.2472  158.7887 H       1  UNL1        0.1564
      6 C         142.1158  144.7270  157.7305 C.ar    1  UNL1        0.1343
      7 C         142.2990  144.8593  156.2477 C.ar    1  UNL1        0.0354
      8 C         141.3492  145.6996  155.4466 C.ar    1  UNL1        0.0158
      9 C         140.2160  146.4075  156.1285 C.ar    1  UNL1        0.0769
     10 CL        139.2661  147.2477  155.3275 Cl      1  UNL1       -0.0806
     11 C         140.0327  146.2751  157.6113 C.ar    1  UNL1        0.1116
     12 N         140.9827  145.4348  158.4124 N.ar    1  UNL1       -0.2281
     13 C         143.7327  140.1848  159.4753 C.3     1  UNL1        0.1261
     14 N         143.0505  139.2065  160.3851 N.3     1  UNL1       -0.2650
     15 C         141.6260  138.9193  160.7569 C.3     1  UNL1        0.1033
     16 C         142.0858  137.8231  161.6717 C.3     1  UNL1        0.1423
     17 O         141.4036  136.8448  162.5814 O.3     1  UNL1       -0.3816
     18 C         143.5103  138.1103  161.2999 C.3     1  UNL1        0.1033
     19 H         140.4443  136.9827  162.5435 H       1  UNL1        0.2105
     20 O         144.4691  142.2891  160.8093 O.3     1  UNL1       -0.4529
     21 C         143.8162  142.9732  161.9738 C.ar    1  UNL1        0.2312
     22 N         143.3121  144.3787  161.8316 N.ar    1  UNL1       -0.1892
     23 C         142.6593  145.0627  162.9960 C.ar    1  UNL1        0.2029
     24 N         142.5106  144.3411  164.3026 N.ar    1  UNL1       -0.2046
     25 C         143.0147  142.9356  164.4448 C.ar    1  UNL1        0.1715
     26 C         143.6675  142.2516  163.2804 C.ar    1  UNL1        0.1098
     27 C         144.0645  140.8721  163.7160 C.ar    1  UNL1        0.1283
     28 N         143.6570  140.7037  165.1497 N.ar    1  UNL1       -0.1619
     29 N         143.0082  141.9789  165.6001 N.ar    1  UNL1       -0.2111
     30 C         142.4507  142.2499  166.9660 C.ar    1  UNL1        0.0949
     31 C         143.3712  142.3446  168.1466 C.ar    1  UNL1        0.0201
     32 C         142.8137  142.6157  169.5125 C.ar    1  UNL1        0.0016
     33 C         141.3357  142.7920  169.6979 C.ar    1  UNL1        0.0010
     34 C         140.4152  142.6973  168.5174 C.ar    1  UNL1        0.0129
     35 C         140.9727  142.4262  167.1515 C.ar    1  UNL1        0.0753
     36 CL        140.0521  142.3315  165.9710 Cl      1  UNL1       -0.0807
@<TRIPOS>BOND
     1     2     3    2
     2     3     4   am
     3     4     6    1
     4     6     7   ar
     5     7     8   ar
     6     8     9   ar
     7     9    10    1
     8     9    11   ar
     9    11    12   ar
    10     3     1    1
    11     1    13    1
    12    13    14    1
    13    14    15    1
    14    15    16    1
    15    16    17    1
    16    16    18    1
    17     1    20    1
    18    20    21    1
    19    21    22   ar
    20    22    23   ar
    21    23    24   ar
    22    24    25   ar
    23    25    26   ar
    24    26    27   ar
    25    27    28   ar
    26    28    29   ar
    27    29    30    1
    28    30    31   ar
    29    31    32   ar
    30    32    33   ar
    31    33    34   ar
    32    34    35   ar
    33    35    36    1
    34    12     6   ar
    35    18    14    1
    36    26    21   ar
    37    35    30   ar
    38    29    25   ar
    39     4     5    1
    40    17    19    1
