@<TRIPOS>MOLECULE
*****
 44 48 0 0 0
SMALL
GASTEIGER

@<TRIPOS>ATOM
      1 C         141.6899  140.8810  162.7587 C.3     1  UNL1        0.0807
      2 C         141.5547  140.7070  164.2425 C.ar    1  UNL1        0.0375
      3 C         141.2064  141.8824  165.1068 C.ar    1  UNL1        0.0023
      4 C         141.0712  141.7085  166.5906 C.ar    1  UNL1        0.0183
      5 C         140.7229  142.8839  167.4548 C.ar    1  UNL1        0.0118
      6 C         140.5877  142.7099  168.9385 C.ar    1  UNL1        0.0685
      7 C         140.8008  141.3605  169.5580 C.ar    1  UNL1        0.0118
      8 C         141.1491  140.1851  168.6937 C.ar    1  UNL1        0.0199
      9 C         141.2843  140.3591  167.2100 C.ar    1  UNL1        0.0844
     10 N         141.6326  139.1836  166.3456 N.ar    1  UNL1       -0.2119
     11 C         141.7678  139.3576  164.8620 C.ar    1  UNL1        0.2211
     12 C         140.2394  143.8854  169.8029 C.1     1  UNL1        0.1004
     13 N         139.8910  145.0608  170.6672 N.1     1  UNL1       -0.1908
     14 O         142.1162  138.1822  163.9976 O.3     1  UNL1       -0.4563
     15 C         141.1649  137.0281  163.8821 C.3     1  UNL1        0.2542
     16 C         140.8600  140.0482  161.8273 C.ar    1  UNL1        0.0215
     17 C         139.3985  139.8493  162.0997 C.ar    1  UNL1       -0.0007
     18 C         138.5684  139.0165  161.1682 C.ar    1  UNL1        0.0030
     19 C         139.2001  138.3827  159.9643 C.ar    1  UNL1        0.0402
     20 C         140.6617  138.5816  159.6919 C.ar    1  UNL1        0.1761
     21 C         141.4916  139.4144  160.6234 C.ar    1  UNL1        0.1728
     22 O         142.8975  139.4329  160.1006 O.3     1  UNL1       -0.4349
     23 C         142.9364  138.6116  158.8461 C.3     1  UNL1        0.4294
     24 O         141.5545  138.0854  158.5935 O.3     1  UNL1       -0.4346
     25 C         142.6551  141.8877  162.2065 C.3     1  UNL1        0.1160
     26 O         143.8008  141.0912  162.7569 O.3     1  UNL1       -0.3820
     27 H         144.6362  141.5333  162.5389 H       1  UNL1        0.2107
     28 C         140.2963  143.7819  159.6379 C.ar    1  UNL1        0.1070
     29 C         141.4420  142.9854  160.1883 C.ar    1  UNL1        0.0235
     30 C         141.5094  142.6842  161.6561 C.ar    1  UNL1        0.0064
     31 C         140.4311  143.1796  162.5736 C.ar    1  UNL1        0.0235
     32 C         139.2854  143.9761  162.0232 C.ar    1  UNL1        0.1070
     33 N         139.2180  144.2772  160.5554 N.ar    1  UNL1       -0.2330
     34 S         140.2290  144.0831  158.1699 S.3     1  UNL1       -0.0950
     35 C         141.9417  145.8947  157.4389 C.3     1  UNL1        0.0130
     36 C         140.5231  145.4679  157.6741 C.3     1  UNL1        0.0637
     37 S         138.2071  144.4714  162.9408 S.3     1  UNL1       -0.0950
     38 C         138.1649  144.0088  164.3670 C.3     1  UNL1        0.0637
     39 C         138.5608  144.9439  165.4709 C.3     1  UNL1        0.0130
     40 C         143.6203  142.8944  161.6543 C.3     1  UNL1        0.0491
     41 C         144.5283  143.6489  162.5796 C.3     1  UNL1        0.0750
     42 N         144.0102  144.1505  163.8948 N.3     1  UNL1       -0.2702
     43 C         144.4894  143.5324  165.1747 C.3     1  UNL1        0.0897
     44 C         143.0128  145.2703  163.9302 C.3     1  UNL1        0.0897
@<TRIPOS>BOND
     1    35    36    1
     2    36    34    1
     3    34    28    1
     4    28    29   ar
     5    29    30   ar
     6    30    25    1
     7    25    26    1
     8    25    40    1
     9    40    41    1
    10    41    42    1
    11    42    43    1
    12    42    44    1
    13    25     1    1
    14     1     2    1
    15     2     3   ar
    16     3     4   ar
    17     4     5   ar
    18     5     6   ar
    19     6    12    1
    20    12    13    3
    21     6     7   ar
    22     7     8   ar
    23     8     9   ar
    24     9    10   ar
    25    10    11   ar
    26    11    14    1
    27    14    15    1
    28     1    16    1
    29    16    17   ar
    30    17    18   ar
    31    18    19   ar
    32    19    20   ar
    33    20    21   ar
    34    21    22    1
    35    22    23    1
    36    23    24    1
    37    30    31   ar
    38    31    32   ar
    39    32    37    1
    40    37    38    1
    41    38    39    1
    42    32    33   ar
    43    33    28   ar
    44    11     2   ar
    45    21    16   ar
    46     9     4   ar
    47    24    20    1
    48    26    27    1
@<TRIPOS>MOLECULE
*****
 44 48 0 0 0
SMALL
GASTEIGER

@<TRIPOS>ATOM
      1 C         141.6903  140.9059  162.7262 C.3     1  UNL1        0.0807
      2 C         141.5485  140.7225  164.2082 C.ar    1  UNL1        0.0375
      3 C         141.2018  141.8935  165.0790 C.ar    1  UNL1        0.0023
      4 C         141.0600  141.7102  166.5611 C.ar    1  UNL1        0.0183
      5 C         140.7132  142.8812  167.4319 C.ar    1  UNL1        0.0118
      6 C         140.5714  142.6978  168.9138 C.ar    1  UNL1        0.0685
      7 C         140.7764  141.3434  169.5250 C.ar    1  UNL1        0.0118
      8 C         141.1231  140.1723  168.6541 C.ar    1  UNL1        0.0199
      9 C         141.2649  140.3557  167.1722 C.ar    1  UNL1        0.0844
     10 N         141.6117  139.1847  166.3013 N.ar    1  UNL1       -0.2119
     11 C         141.7535  139.3681  164.8193 C.ar    1  UNL1        0.2211
     12 C         140.2246  143.8689  169.7847 C.1     1  UNL1        0.1004
     13 N         139.8778  145.0399  170.6556 N.1     1  UNL1       -0.1908
     14 O         142.1003  138.1970  163.9484 O.3     1  UNL1       -0.4563
     15 C         141.1175  137.0778  163.7703 C.3     1  UNL1        0.2542
     16 C         140.8668  140.0769  161.7857 C.ar    1  UNL1        0.0215
     17 C         139.4013  139.8856  162.0415 C.ar    1  UNL1       -0.0007
     18 C         138.5777  139.0566  161.1010 C.ar    1  UNL1        0.0030
     19 C         139.2197  138.4189  159.9047 C.ar    1  UNL1        0.0402
     20 C         140.6853  138.6102  159.6489 C.ar    1  UNL1        0.1761
     21 C         141.5089  139.4392  160.5894 C.ar    1  UNL1        0.1728
     22 O         142.9206  139.4502  160.0827 O.3     1  UNL1       -0.4349
     23 C         142.9696  138.6281  158.8291 C.3     1  UNL1        0.4294
     24 O         141.5881  138.1089  158.5610 O.3     1  UNL1       -0.4346
     25 C         142.6557  141.9183  162.1847 C.3     1  UNL1        0.1160
     26 O         143.8010  141.1180  162.7304 O.3     1  UNL1       -0.3820
     27 H         144.6365  141.5627  162.5179 H       1  UNL1        0.2107
     28 C         139.2477  143.9434  161.9996 C.ar    1  UNL1        0.1070
     29 C         140.3930  143.1431  162.5453 C.ar    1  UNL1        0.0235
     30 C         141.5104  142.7185  161.6391 C.ar    1  UNL1        0.0064
     31 C         141.4824  143.0943  160.1872 C.ar    1  UNL1        0.0235
     32 C         140.3371  143.8946  159.6415 C.ar    1  UNL1        0.1070
     33 N         139.2197  144.3191  160.5477 N.ar    1  UNL1       -0.2330
     34 S         138.1303  144.3679  162.9059 S.3     1  UNL1       -0.0950
     35 C         138.6778  144.9290  165.3829 C.3     1  UNL1        0.0130
     36 C         138.1483  143.9751  164.3534 C.3     1  UNL1        0.0637
     37 S         140.3091  144.2703  158.1896 S.3     1  UNL1       -0.0950
     38 C         140.6657  145.6653  157.7689 C.3     1  UNL1        0.0637
     39 C         142.0267  145.9551  157.2091 C.3     1  UNL1        0.0130
     40 C         143.6211  142.9306  161.6433 C.3     1  UNL1        0.0491
     41 C         144.5227  143.6817  162.5775 C.3     1  UNL1        0.0750
     42 N         144.0102  144.1342  163.9126 N.3     1  UNL1       -0.2702
     43 C         144.5188  143.4910  165.1685 C.3     1  UNL1        0.0897
     44 C         142.9890  145.2301  163.9917 C.3     1  UNL1        0.0897
@<TRIPOS>BOND
     1    35    36    1
     2    36    34    1
     3    34    28    1
     4    28    29   ar
     5    29    30   ar
     6    30    25    1
     7    25    26    1
     8    25    40    1
     9    40    41    1
    10    41    42    1
    11    42    43    1
    12    42    44    1
    13    25     1    1
    14     1     2    1
    15     2     3   ar
    16     3     4   ar
    17     4     5   ar
    18     5     6   ar
    19     6    12    1
    20    12    13    3
    21     6     7   ar
    22     7     8   ar
    23     8     9   ar
    24     9    10   ar
    25    10    11   ar
    26    11    14    1
    27    14    15    1
    28     1    16    1
    29    16    17   ar
    30    17    18   ar
    31    18    19   ar
    32    19    20   ar
    33    20    21   ar
    34    21    22    1
    35    22    23    1
    36    23    24    1
    37    30    31   ar
    38    31    32   ar
    39    32    37    1
    40    37    38    1
    41    38    39    1
    42    32    33   ar
    43    33    28   ar
    44    11     2   ar
    45    21    16   ar
    46     9     4   ar
    47    24    20    1
    48    26    27    1
@<TRIPOS>MOLECULE
*****
 44 48 0 0 0
SMALL
GASTEIGER

@<TRIPOS>ATOM
      1 C         141.9338  140.9121  162.3919 C.3     1  UNL1        0.0807
      2 C         141.7091  140.6782  163.8565 C.ar    1  UNL1        0.0375
      3 C         141.3937  141.8327  164.7607 C.ar    1  UNL1        0.0023
      4 C         141.1689  141.5988  166.2252 C.ar    1  UNL1        0.0183
      5 C         140.8536  142.7533  167.1294 C.ar    1  UNL1        0.0118
      6 C         140.6289  142.5193  168.5939 C.ar    1  UNL1        0.0685
      7 C         140.7195  141.1308  169.1542 C.ar    1  UNL1        0.0118
      8 C         141.0348  139.9763  168.2500 C.ar    1  UNL1        0.0199
      9 C         141.2595  140.2103  166.7855 C.ar    1  UNL1        0.0844
     10 N         141.5749  139.0557  165.8812 N.ar    1  UNL1       -0.2119
     11 C         141.7996  139.2897  164.4168 C.ar    1  UNL1        0.2211
     12 C         140.3135  143.6739  169.4982 C.1     1  UNL1        0.1004
     13 N         139.9982  144.8284  170.4024 N.1     1  UNL1       -0.1908
     14 O         142.1150  138.1352  163.5125 O.3     1  UNL1       -0.4563
     15 C         141.0936  137.0606  163.2842 C.3     1  UNL1        0.2542
     16 C         141.1707  140.1115  161.3788 C.ar    1  UNL1        0.0215
     17 C         141.9069  139.3313  160.3304 C.ar    1  UNL1       -0.0007
     18 C         141.1438  138.5306  159.3172 C.ar    1  UNL1        0.0030
     19 C         139.6443  138.5103  159.3523 C.ar    1  UNL1        0.0402
     20 C         138.9080  139.2905  160.4008 C.ar    1  UNL1        0.1761
     21 C         139.6712  140.0911  161.4139 C.ar    1  UNL1        0.1728
     22 O         138.6794  140.7558  162.3220 O.3     1  UNL1       -0.4349
     23 C         137.3033  140.3659  161.8700 C.3     1  UNL1        0.4294
     24 O         137.4446  139.4603  160.6826 O.3     1  UNL1       -0.4346
     25 C         142.9218  141.9467  161.9407 C.3     1  UNL1        0.1160
     26 O         144.0393  141.1340  162.5243 O.3     1  UNL1       -0.3820
     27 H         144.8826  141.5896  162.3750 H       1  UNL1        0.2107
     28 C         139.7274  144.2870  161.6781 C.ar    1  UNL1        0.1070
     29 C         140.8450  143.4744  162.2618 C.ar    1  UNL1        0.0235
     30 C         141.8042  142.7593  161.3570 C.ar    1  UNL1        0.0064
     31 C         141.6458  142.8569  159.8686 C.ar    1  UNL1        0.0235
     32 C         140.5282  143.6696  159.2850 C.ar    1  UNL1        0.1070
     33 N         139.5690  144.3846  160.1897 N.ar    1  UNL1       -0.2330
     34 S         138.7682  145.0021  162.5830 S.3     1  UNL1       -0.0950
     35 C         137.9527  143.4578  164.5066 C.3     1  UNL1        0.0130
     36 C         137.6668  144.2413  163.2599 C.3     1  UNL1        0.0637
     37 S         140.3699  143.7671  157.7965 S.3     1  UNL1       -0.0950
     38 C         141.1319  144.8055  157.0277 C.3     1  UNL1        0.0637
     39 C         141.9426  145.8347  157.7581 C.3     1  UNL1        0.0130
     40 C         143.9097  142.9812  161.4894 C.3     1  UNL1        0.0491
     41 C         144.7777  143.6783  162.4947 C.3     1  UNL1        0.0750
     42 N         144.2107  144.0819  163.8234 N.3     1  UNL1       -0.2702
     43 C         144.5959  143.3300  165.0628 C.3     1  UNL1        0.0897
     44 C         143.2585  145.2374  163.9128 C.3     1  UNL1        0.0897
@<TRIPOS>BOND
     1    35    36    1
     2    36    34    1
     3    34    28    1
     4    28    29   ar
     5    29    30   ar
     6    30    25    1
     7    25    26    1
     8    25    40    1
     9    40    41    1
    10    41    42    1
    11    42    43    1
    12    42    44    1
    13    25     1    1
    14     1     2    1
    15     2     3   ar
    16     3     4   ar
    17     4     5   ar
    18     5     6   ar
    19     6    12    1
    20    12    13    3
    21     6     7   ar
    22     7     8   ar
    23     8     9   ar
    24     9    10   ar
    25    10    11   ar
    26    11    14    1
    27    14    15    1
    28     1    16    1
    29    16    17   ar
    30    17    18   ar
    31    18    19   ar
    32    19    20   ar
    33    20    21   ar
    34    21    22    1
    35    22    23    1
    36    23    24    1
    37    30    31   ar
    38    31    32   ar
    39    32    37    1
    40    37    38    1
    41    38    39    1
    42    32    33   ar
    43    33    28   ar
    44    11     2   ar
    45    21    16   ar
    46     9     4   ar
    47    24    20    1
    48    26    27    1
@<TRIPOS>MOLECULE
*****
 44 48 0 0 0
SMALL
GASTEIGER

@<TRIPOS>ATOM
      1 C         141.5407  142.3824  162.5538 C.3     1  UNL1        0.0807
      2 C         141.9853  142.3315  163.9856 C.ar    1  UNL1        0.0375
      3 C         141.1211  141.6674  165.0161 C.ar    1  UNL1        0.0023
      4 C         141.5656  141.6165  166.4479 C.ar    1  UNL1        0.0183
      5 C         140.7014  140.9524  167.4784 C.ar    1  UNL1        0.0118
      6 C         141.1460  140.9015  168.9101 C.ar    1  UNL1        0.0685
      7 C         142.4549  141.5148  169.3112 C.ar    1  UNL1        0.0118
      8 C         143.3191  142.1789  168.2806 C.ar    1  UNL1        0.0199
      9 C         142.8745  142.2298  166.8490 C.ar    1  UNL1        0.0844
     10 N         143.7387  142.8939  165.8184 N.ar    1  UNL1       -0.2119
     11 C         143.2941  142.9447  164.3867 C.ar    1  UNL1        0.2211
     12 C         140.2818  140.2374  169.9407 C.1     1  UNL1        0.1004
     13 N         139.4176  139.5733  170.9712 N.1     1  UNL1       -0.1908
     14 O         144.1583  143.6089  163.3561 O.3     1  UNL1       -0.4563
     15 C         144.0103  145.0770  163.0864 C.3     1  UNL1        0.2542
     16 C         142.4317  141.8472  161.4724 C.ar    1  UNL1        0.0215
     17 C         142.8168  142.7223  160.3165 C.ar    1  UNL1       -0.0007
     18 C         143.7079  142.1871  159.2350 C.ar    1  UNL1        0.0030
     19 C         144.2139  140.7770  159.3093 C.ar    1  UNL1        0.0402
     20 C         143.8287  139.9020  160.4652 C.ar    1  UNL1        0.1761
     21 C         142.9377  140.4371  161.5467 C.ar    1  UNL1        0.1728
     22 O         142.7287  139.3477  162.5564 O.3     1  UNL1       -0.4349
     23 C         143.4906  138.1393  162.0989 C.3     1  UNL1        0.4294
     24 O         144.1704  138.4819  160.8065 O.3     1  UNL1       -0.4346
     25 C         140.2050  142.9684  162.2037 C.3     1  UNL1        0.1160
     26 O         140.6575  144.3045  162.7136 O.3     1  UNL1       -0.3820
     27 H         139.9408  144.9498  162.6100 H       1  UNL1        0.2107
     28 C         139.0530  139.1711  162.1446 C.ar    1  UNL1        0.1070
     29 C         139.5055  140.5072  162.6545 C.ar    1  UNL1        0.0235
     30 C         139.7525  141.6323  161.6937 C.ar    1  UNL1        0.0064
     31 C         139.5470  141.4212  160.2229 C.ar    1  UNL1        0.0235
     32 C         139.0945  140.0851  159.7130 C.ar    1  UNL1        0.1070
     33 N         138.8475  138.9600  160.6738 N.ar    1  UNL1       -0.2330
     34 S         138.8059  138.0460  163.1055 S.3     1  UNL1       -0.0950
     35 C         138.3990  138.7052  165.5853 C.3     1  UNL1        0.0130
     36 C         139.2950  138.1467  164.5199 C.3     1  UNL1        0.0637
     37 S         138.8891  139.8741  158.2421 S.3     1  UNL1       -0.0950
     38 C         139.8377  139.0064  157.4692 C.3     1  UNL1        0.0637
     39 C         141.2671  138.8830  157.9067 C.3     1  UNL1        0.0130
     40 C         138.8694  143.5544  161.8535 C.3     1  UNL1        0.0491
     41 C         138.1179  144.3665  162.8662 C.3     1  UNL1        0.0750
     42 N         138.0976  143.9398  164.3041 N.3     1  UNL1       -0.2702
     43 C         137.5973  142.5751  164.6746 C.3     1  UNL1        0.0897
     44 C         138.5777  144.8779  165.3716 C.3     1  UNL1        0.0897
@<TRIPOS>BOND
     1    35    36    1
     2    36    34    1
     3    34    28    1
     4    28    29   ar
     5    29    30   ar
     6    30    25    1
     7    25    26    1
     8    25    40    1
     9    40    41    1
    10    41    42    1
    11    42    43    1
    12    42    44    1
    13    25     1    1
    14     1     2    1
    15     2     3   ar
    16     3     4   ar
    17     4     5   ar
    18     5     6   ar
    19     6    12    1
    20    12    13    3
    21     6     7   ar
    22     7     8   ar
    23     8     9   ar
    24     9    10   ar
    25    10    11   ar
    26    11    14    1
    27    14    15    1
    28     1    16    1
    29    16    17   ar
    30    17    18   ar
    31    18    19   ar
    32    19    20   ar
    33    20    21   ar
    34    21    22    1
    35    22    23    1
    36    23    24    1
    37    30    31   ar
    38    31    32   ar
    39    32    37    1
    40    37    38    1
    41    38    39    1
    42    32    33   ar
    43    33    28   ar
    44    11     2   ar
    45    21    16   ar
    46     9     4   ar
    47    24    20    1
    48    26    27    1
@<TRIPOS>MOLECULE
*****
 44 48 0 0 0
SMALL
GASTEIGER

@<TRIPOS>ATOM
      1 C         141.5385  142.3779  162.5036 C.3     1  UNL1        0.0807
      2 C         141.9891  142.3232  163.9333 C.ar    1  UNL1        0.0375
      3 C         141.1261  141.6623  164.9670 C.ar    1  UNL1        0.0023
      4 C         141.5768  141.6077  166.3967 C.ar    1  UNL1        0.0183
      5 C         140.7138  140.9468  167.4303 C.ar    1  UNL1        0.0118
      6 C         141.1645  140.8922  168.8599 C.ar    1  UNL1        0.0685
      7 C         142.4781  141.4984  169.2559 C.ar    1  UNL1        0.0118
      8 C         143.3411  142.1592  168.2223 C.ar    1  UNL1        0.0199
      9 C         142.8905  142.2139  166.7926 C.ar    1  UNL1        0.0844
     10 N         143.7535  142.8747  165.7589 N.ar    1  UNL1       -0.2119
     11 C         143.3028  142.9294  164.3293 C.ar    1  UNL1        0.2211
     12 C         140.3014  140.2313  169.8937 C.1     1  UNL1        0.1004
     13 N         139.4385  139.5704  170.9273 N.1     1  UNL1       -0.1908
     14 O         144.1658  143.5903  163.2955 O.3     1  UNL1       -0.4563
     15 C         144.0102  145.0554  163.0140 C.3     1  UNL1        0.2542
     16 C         142.4493  141.9012  161.4114 C.ar    1  UNL1        0.0215
     17 C         142.8056  142.8176  160.2786 C.ar    1  UNL1       -0.0007
     18 C         143.7165  142.3409  159.1863 C.ar    1  UNL1        0.0030
     19 C         144.2711  140.9477  159.2268 C.ar    1  UNL1        0.0402
     20 C         143.9148  140.0313  160.3597 C.ar    1  UNL1        0.1761
     21 C         143.0039  140.5080  161.4519 C.ar    1  UNL1        0.1728
     22 O         142.8314  139.3872  162.4337 O.3     1  UNL1       -0.4349
     23 C         143.6356  138.2178  161.9482 C.3     1  UNL1        0.4294
     24 O         144.3052  138.6159  160.6664 O.3     1  UNL1       -0.4346
     25 C         140.1769  142.9093  162.1662 C.3     1  UNL1        0.1160
     26 O         140.5778  144.2612  162.6777 O.3     1  UNL1       -0.3820
     27 H         139.8341  144.8766  162.5823 H       1  UNL1        0.2107
     28 C         139.2093  139.9801  159.6696 C.ar    1  UNL1        0.1070
     29 C         139.6102  141.3320  160.1811 C.ar    1  UNL1        0.0235
     30 C         139.7760  141.5574  161.6547 C.ar    1  UNL1        0.0064
     31 C         139.5410  140.4309  162.6168 C.ar    1  UNL1        0.0235
     32 C         139.1401  139.0790  162.1053 C.ar    1  UNL1        0.1070
     33 N         138.9742  138.8536  160.6317 N.ar    1  UNL1       -0.2330
     34 S         139.0434  139.7547  158.1959 S.3     1  UNL1       -0.0950
     35 C         141.4434  138.7925  157.9427 C.3     1  UNL1        0.0130
     36 C         140.0308  138.9058  157.4512 C.3     1  UNL1        0.0637
     37 S         138.9050  137.9525  163.0675 S.3     1  UNL1       -0.0950
     38 C         139.6501  137.9097  164.3687 C.3     1  UNL1        0.0637
     39 C         140.9741  137.2098  164.4522 C.3     1  UNL1        0.0130
     40 C         138.8154  143.4407  161.8288 C.3     1  UNL1        0.0491
     41 C         138.0595  144.2588  162.8334 C.3     1  UNL1        0.0750
     42 N         138.0617  143.8602  164.2795 N.3     1  UNL1       -0.2702
     43 C         137.5836  142.4967  164.6824 C.3     1  UNL1        0.0897
     44 C         138.5420  144.8251  165.3227 C.3     1  UNL1        0.0897
@<TRIPOS>BOND
     1    35    36    1
     2    36    34    1
     3    34    28    1
     4    28    29   ar
     5    29    30   ar
     6    30    25    1
     7    25    26    1
     8    25    40    1
     9    40    41    1
    10    41    42    1
    11    42    43    1
    12    42    44    1
    13    25     1    1
    14     1     2    1
    15     2     3   ar
    16     3     4   ar
    17     4     5   ar
    18     5     6   ar
    19     6    12    1
    20    12    13    3
    21     6     7   ar
    22     7     8   ar
    23     8     9   ar
    24     9    10   ar
    25    10    11   ar
    26    11    14    1
    27    14    15    1
    28     1    16    1
    29    16    17   ar
    30    17    18   ar
    31    18    19   ar
    32    19    20   ar
    33    20    21   ar
    34    21    22    1
    35    22    23    1
    36    23    24    1
    37    30    31   ar
    38    31    32   ar
    39    32    37    1
    40    37    38    1
    41    38    39    1
    42    32    33   ar
    43    33    28   ar
    44    11     2   ar
    45    21    16   ar
    46     9     4   ar
    47    24    20    1
    48    26    27    1
@<TRIPOS>MOLECULE
*****
 44 48 0 0 0
SMALL
GASTEIGER

@<TRIPOS>ATOM
      1 C         140.4462  141.3975  161.5141 C.3     1  UNL1        0.0807
      2 C         140.0953  140.9629  162.9063 C.ar    1  UNL1        0.0375
      3 C         141.0955  141.1142  164.0137 C.ar    1  UNL1        0.0023
      4 C         140.7446  140.6796  165.4059 C.ar    1  UNL1        0.0183
      5 C         141.7449  140.8310  166.5134 C.ar    1  UNL1        0.0118
      6 C         141.3940  140.3964  167.9055 C.ar    1  UNL1        0.0685
      7 C         140.0428  139.8105  168.1901 C.ar    1  UNL1        0.0118
      8 C         139.0425  139.6592  167.0826 C.ar    1  UNL1        0.0199
      9 C         139.3935  140.0937  165.6906 C.ar    1  UNL1        0.0844
     10 N         138.3932  139.9424  164.5830 N.ar    1  UNL1       -0.2119
     11 C         138.7441  140.3770  163.1909 C.ar    1  UNL1        0.2211
     12 C         142.3943  140.5477  169.0130 C.1     1  UNL1        0.1004
     13 N         143.3945  140.6990  170.1205 N.1     1  UNL1       -0.1908
     14 O         137.7438  140.2256  162.0834 O.3     1  UNL1       -0.4563
     15 C         137.4778  138.8727  161.4927 C.3     1  UNL1        0.2542
     16 C         140.6717  140.3721  160.4428 C.ar    1  UNL1        0.0215
     17 C         139.8436  140.3994  159.1924 C.ar    1  UNL1       -0.0007
     18 C         140.0691  139.3741  158.1209 C.ar    1  UNL1        0.0030
     19 C         141.1226  138.3214  158.3000 C.ar    1  UNL1        0.0402
     20 C         141.9507  138.2942  159.5505 C.ar    1  UNL1        0.1761
     21 C         141.7252  139.3195  160.6218 C.ar    1  UNL1        0.1728
     22 O         142.6887  139.0434  161.7378 O.3     1  UNL1       -0.4349
     23 C         143.5096  137.8474  161.3561 C.3     1  UNL1        0.4294
     24 O         143.0535  137.3844  160.0043 O.3     1  UNL1       -0.4346
     25 C         140.5716  142.8574  161.1934 C.3     1  UNL1        0.1160
     26 O         139.1003  143.0348  161.4258 O.3     1  UNL1       -0.3820
     27 H         138.8597  143.9632  161.2804 H       1  UNL1        0.2107
     28 C         144.4310  142.2472  161.8876 C.ar    1  UNL1        0.1070
     29 C         142.9598  142.4246  162.1201 C.ar    1  UNL1        0.0235
     30 C         142.0428  142.6800  160.9609 C.ar    1  UNL1        0.0064
     31 C         142.5970  142.7579  159.5692 C.ar    1  UNL1        0.0235
     32 C         144.0682  142.5805  159.3368 C.ar    1  UNL1        0.1070
     33 N         144.9852  142.3251  160.4960 N.ar    1  UNL1       -0.2330
     34 S         145.3481  141.9918  163.0469 S.3     1  UNL1       -0.0950
     35 C         144.9744  139.7442  164.2954 C.3     1  UNL1        0.0130
     36 C         144.8508  141.2382  164.2448 C.3     1  UNL1        0.0637
     37 S         144.6223  142.6584  157.9450 S.3     1  UNL1       -0.0950
     38 C         144.1012  141.7421  156.8779 C.3     1  UNL1        0.0637
     39 C         144.0220  140.2656  157.1302 C.3     1  UNL1        0.0130
     40 C         140.6970  144.3173  160.8726 C.3     1  UNL1        0.0491
     41 C         140.2847  145.3455  161.8839 C.3     1  UNL1        0.0750
     42 N         140.6283  145.1536  163.3314 N.3     1  UNL1       -0.2702
     43 C         142.0354  145.3705  163.8034 C.3     1  UNL1        0.0897
     44 C         139.5647  144.7449  164.3069 C.3     1  UNL1        0.0897
@<TRIPOS>BOND
     1    35    36    1
     2    36    34    1
     3    34    28    1
     4    28    29   ar
     5    29    30   ar
     6    30    25    1
     7    25    26    1
     8    25    40    1
     9    40    41    1
    10    41    42    1
    11    42    43    1
    12    42    44    1
    13    25     1    1
    14     1     2    1
    15     2     3   ar
    16     3     4   ar
    17     4     5   ar
    18     5     6   ar
    19     6    12    1
    20    12    13    3
    21     6     7   ar
    22     7     8   ar
    23     8     9   ar
    24     9    10   ar
    25    10    11   ar
    26    11    14    1
    27    14    15    1
    28     1    16    1
    29    16    17   ar
    30    17    18   ar
    31    18    19   ar
    32    19    20   ar
    33    20    21   ar
    34    21    22    1
    35    22    23    1
    36    23    24    1
    37    30    31   ar
    38    31    32   ar
    39    32    37    1
    40    37    38    1
    41    38    39    1
    42    32    33   ar
    43    33    28   ar
    44    11     2   ar
    45    21    16   ar
    46     9     4   ar
    47    24    20    1
    48    26    27    1
@<TRIPOS>MOLECULE
*****
 44 48 0 0 0
SMALL
GASTEIGER

@<TRIPOS>ATOM
      1 C         141.4988  140.5317  161.3943 C.3     1  UNL1        0.0807
      2 C         141.8394  140.2090  162.8191 C.ar    1  UNL1        0.0375
      3 C         141.5588  141.2081  163.9021 C.ar    1  UNL1        0.0023
      4 C         141.8994  140.8854  165.3269 C.ar    1  UNL1        0.0183
      5 C         141.6187  141.8845  166.4099 C.ar    1  UNL1        0.0118
      6 C         141.9594  141.5617  167.8346 C.ar    1  UNL1        0.0685
      7 C         142.5806  140.2398  168.1762 C.ar    1  UNL1        0.0118
      8 C         142.8613  139.2408  167.0932 C.ar    1  UNL1        0.0199
      9 C         142.5207  139.5635  165.6685 C.ar    1  UNL1        0.0844
     10 N         142.8014  138.5644  164.5854 N.ar    1  UNL1       -0.2119
     11 C         142.4607  138.8872  163.1607 C.ar    1  UNL1        0.2211
     12 C         141.6787  142.5608  168.9177 C.1     1  UNL1        0.1004
     13 N         141.3981  143.5598  170.0008 N.1     1  UNL1       -0.1908
     14 O         142.7414  137.8880  162.0776 O.3     1  UNL1       -0.4563
     15 C         144.1180  137.7848  161.4909 C.3     1  UNL1        0.2542
     16 C         142.5714  140.9934  160.4528 C.ar    1  UNL1        0.0215
     17 C         143.3504  142.2388  160.7562 C.ar    1  UNL1       -0.0007
     18 C         144.4231  142.7005  159.8147 C.ar    1  UNL1        0.0030
     19 C         144.7166  141.9169  158.5699 C.ar    1  UNL1        0.0402
     20 C         143.9375  140.6714  158.2665 C.ar    1  UNL1        0.1761
     21 C         142.8649  140.2097  159.2080 C.ar    1  UNL1        0.1728
     22 O         142.2669  138.9529  158.6488 O.3     1  UNL1       -0.4349
     23 C         142.9698  138.6379  157.3617 C.3     1  UNL1        0.4294
     24 O         144.0024  139.7000  157.1254 O.3     1  UNL1       -0.4346
     25 C         140.0856  140.3928  160.9111 C.3     1  UNL1        0.1160
     26 O         140.1626  138.9084  161.1128 O.3     1  UNL1       -0.3820
     27 H         139.3176  138.5037  160.8616 H       1  UNL1        0.2107
     28 C         139.8303  144.2752  161.6929 C.ar    1  UNL1        0.1070
     29 C         139.9074  142.7908  161.8946 C.ar    1  UNL1        0.0235
     30 C         140.0086  141.8771  160.7094 C.ar    1  UNL1        0.0064
     31 C         140.0328  142.4478  159.3224 C.ar    1  UNL1        0.0235
     32 C         139.9558  143.9322  159.1207 C.ar    1  UNL1        0.1070
     33 N         139.8546  144.8459  160.3060 N.ar    1  UNL1       -0.2330
     34 S         139.7291  145.1889  162.8783 S.3     1  UNL1       -0.0950
     35 C         138.7852  144.8192  165.2704 C.3     1  UNL1        0.0130
     36 C         139.8835  144.6383  164.2650 C.3     1  UNL1        0.0637
     37 S         139.9800  144.5029  157.7337 S.3     1  UNL1       -0.0950
     38 C         140.6464  145.8220  157.4770 C.3     1  UNL1        0.0637
     39 C         142.1420  145.9276  157.5195 C.3     1  UNL1        0.0130
     40 C         138.6724  140.2538  160.4278 C.3     1  UNL1        0.0491
     41 C         137.5946  139.8202  161.3766 C.3     1  UNL1        0.0750
     42 N         137.7023  140.1508  162.8358 N.3     1  UNL1       -0.2702
     43 C         137.1782  141.4592  163.3491 C.3     1  UNL1        0.0897
     44 C         138.3340  139.1730  163.7817 C.3     1  UNL1        0.0897
@<TRIPOS>BOND
     1    35    36    1
     2    36    34    1
     3    34    28    1
     4    28    29   ar
     5    29    30   ar
     6    30    25    1
     7    25    26    1
     8    25    40    1
     9    40    41    1
    10    41    42    1
    11    42    43    1
    12    42    44    1
    13    25     1    1
    14     1     2    1
    15     2     3   ar
    16     3     4   ar
    17     4     5   ar
    18     5     6   ar
    19     6    12    1
    20    12    13    3
    21     6     7   ar
    22     7     8   ar
    23     8     9   ar
    24     9    10   ar
    25    10    11   ar
    26    11    14    1
    27    14    15    1
    28     1    16    1
    29    16    17   ar
    30    17    18   ar
    31    18    19   ar
    32    19    20   ar
    33    20    21   ar
    34    21    22    1
    35    22    23    1
    36    23    24    1
    37    30    31   ar
    38    31    32   ar
    39    32    37    1
    40    37    38    1
    41    38    39    1
    42    32    33   ar
    43    33    28   ar
    44    11     2   ar
    45    21    16   ar
    46     9     4   ar
    47    24    20    1
    48    26    27    1
@<TRIPOS>MOLECULE
*****
 44 48 0 0 0
SMALL
GASTEIGER

@<TRIPOS>ATOM
      1 C         140.0373  141.0778  162.6396 C.3     1  UNL1        0.0807
      2 C         139.9543  140.8269  164.1161 C.ar    1  UNL1        0.0375
      3 C         140.7353  141.6840  165.0676 C.ar    1  UNL1        0.0023
      4 C         140.6523  141.4331  166.5442 C.ar    1  UNL1        0.0183
      5 C         141.4332  142.2902  167.4957 C.ar    1  UNL1        0.0118
      6 C         141.3503  142.0392  168.9722 C.ar    1  UNL1        0.0685
      7 C         140.4864  140.9311  169.4972 C.ar    1  UNL1        0.0118
      8 C         139.7054  140.0739  168.5457 C.ar    1  UNL1        0.0199
      9 C         139.7884  140.3249  167.0692 C.ar    1  UNL1        0.0844
     10 N         139.0075  139.4677  166.1176 N.ar    1  UNL1       -0.2119
     11 C         139.0904  139.7187  164.6412 C.ar    1  UNL1        0.2211
     12 C         142.1312  142.8964  169.9237 C.1     1  UNL1        0.1004
     13 N         142.9121  143.7536  170.8752 N.1     1  UNL1       -0.1908
     14 O         138.3095  138.8615  163.6896 O.3     1  UNL1       -0.4563
     15 C         138.8222  137.5041  163.3094 C.3     1  UNL1        0.2542
     16 C         140.7505  140.1016  161.7518 C.ar    1  UNL1        0.0215
     17 C         140.0758  139.5778  160.5187 C.ar    1  UNL1       -0.0007
     18 C         140.7890  138.6015  159.6308 C.ar    1  UNL1        0.0030
     19 C         142.1768  138.1490  159.9761 C.ar    1  UNL1        0.0402
     20 C         142.8514  138.6728  161.2092 C.ar    1  UNL1        0.1761
     21 C         142.1383  139.6490  162.0970 C.ar    1  UNL1        0.1728
     22 O         143.0504  139.9898  163.2381 O.3     1  UNL1       -0.4349
     23 C         144.3272  139.2242  163.0554 C.3     1  UNL1        0.4294
     24 O         144.2043  138.4102  161.8015 O.3     1  UNL1       -0.4346
     25 C         139.4070  142.3051  162.0509 C.3     1  UNL1        0.1160
     26 O         138.0675  141.8610  162.5591 O.3     1  UNL1       -0.3820
     27 H         137.3945  142.5135  162.3097 H       1  UNL1        0.2107
     28 C         143.1426  143.6442  161.9992 C.ar    1  UNL1        0.1070
     29 C         141.8030  143.2000  162.5074 C.ar    1  UNL1        0.0235
     30 C         140.7466  142.7493  161.5427 C.ar    1  UNL1        0.0064
     31 C         141.0298  142.7427  160.0697 C.ar    1  UNL1        0.0235
     32 C         142.3694  143.1868  159.5615 C.ar    1  UNL1        0.1070
     33 N         143.4258  143.6376  160.5263 N.ar    1  UNL1       -0.2330
     34 S         144.1990  144.0949  162.9641 S.3     1  UNL1       -0.0950
     35 C         144.3097  142.8306  165.2311 C.3     1  UNL1        0.0130
     36 C         143.9355  144.0489  164.4401 C.3     1  UNL1        0.0637
     37 S         142.6525  143.1802  158.0884 S.3     1  UNL1       -0.0950
     38 C         142.0773  144.2509  157.2093 C.3     1  UNL1        0.0637
     39 C         142.0442  145.6734  157.6839 C.3     1  UNL1        0.0130
     40 C         138.7768  143.5324  161.4622 C.3     1  UNL1        0.0491
     41 C         138.2784  144.6245  162.3615 C.3     1  UNL1        0.0750
     42 N         138.6370  144.6188  163.8180 N.3     1  UNL1       -0.2702
     43 C         139.9604  145.1638  164.2667 C.3     1  UNL1        0.0897
     44 C         137.6720  144.0682  164.8258 C.3     1  UNL1        0.0897
@<TRIPOS>BOND
     1    35    36    1
     2    36    34    1
     3    34    28    1
     4    28    29   ar
     5    29    30   ar
     6    30    25    1
     7    25    26    1
     8    25    40    1
     9    40    41    1
    10    41    42    1
    11    42    43    1
    12    42    44    1
    13    25     1    1
    14     1     2    1
    15     2     3   ar
    16     3     4   ar
    17     4     5   ar
    18     5     6   ar
    19     6    12    1
    20    12    13    3
    21     6     7   ar
    22     7     8   ar
    23     8     9   ar
    24     9    10   ar
    25    10    11   ar
    26    11    14    1
    27    14    15    1
    28     1    16    1
    29    16    17   ar
    30    17    18   ar
    31    18    19   ar
    32    19    20   ar
    33    20    21   ar
    34    21    22    1
    35    22    23    1
    36    23    24    1
    37    30    31   ar
    38    31    32   ar
    39    32    37    1
    40    37    38    1
    41    38    39    1
    42    32    33   ar
    43    33    28   ar
    44    11     2   ar
    45    21    16   ar
    46     9     4   ar
    47    24    20    1
    48    26    27    1
@<TRIPOS>MOLECULE
*****
 44 48 0 0 0
SMALL
GASTEIGER

@<TRIPOS>ATOM
      1 C         140.0057  141.4622  161.6567 C.3     1  UNL1        0.0807
      2 C         139.7548  141.0132  163.0658 C.ar    1  UNL1        0.0375
      3 C         140.6171  141.5257  164.1810 C.ar    1  UNL1        0.0023
      4 C         140.3661  141.0767  165.5901 C.ar    1  UNL1        0.0183
      5 C         141.2284  141.5892  166.7053 C.ar    1  UNL1        0.0118
      6 C         140.9775  141.1402  168.1144 C.ar    1  UNL1        0.0685
      7 C         139.8643  140.1787  168.4082 C.ar    1  UNL1        0.0118
      8 C         139.0020  139.6663  167.2929 C.ar    1  UNL1        0.0199
      9 C         139.2529  140.1153  165.8839 C.ar    1  UNL1        0.0844
     10 N         138.3906  139.6028  164.7686 N.ar    1  UNL1       -0.2119
     11 C         138.6415  140.0518  163.3596 C.ar    1  UNL1        0.2211
     12 C         141.8398  141.6527  169.2297 C.1     1  UNL1        0.1004
     13 N         142.7021  142.1652  170.3449 N.1     1  UNL1       -0.1908
     14 O         137.7792  139.5393  162.2443 O.3     1  UNL1       -0.4563
     15 C         137.8473  138.0945  161.8468 C.3     1  UNL1        0.2542
     16 C         140.2110  140.4473  160.5714 C.ar    1  UNL1        0.0215
     17 C         141.3053  139.4289  160.6943 C.ar    1  UNL1       -0.0007
     18 C         141.5107  138.4139  159.6091 C.ar    1  UNL1        0.0030
     19 C         140.6216  138.4174  158.4010 C.ar    1  UNL1        0.0402
     20 C         139.5272  139.4359  158.2781 C.ar    1  UNL1        0.1761
     21 C         139.3219  140.4508  159.3633 C.ar    1  UNL1        0.1728
     22 O         138.1693  141.3255  158.9678 O.3     1  UNL1       -0.4349
     23 C         137.6623  140.8512  157.6382 C.3     1  UNL1        0.4294
     24 O         138.5016  139.6833  157.2119 O.3     1  UNL1       -0.4346
     25 C         140.0513  142.9261  161.3329 C.3     1  UNL1        0.1160
     26 O         138.5874  143.0396  161.6397 O.3     1  UNL1       -0.3820
     27 H         138.2996  143.9566  161.5085 H       1  UNL1        0.2107
     28 C         143.9640  142.4867  161.8302 C.ar    1  UNL1        0.1070
     29 C         142.5001  142.6002  162.1371 C.ar    1  UNL1        0.0235
     30 C         141.5152  142.8127  161.0260 C.ar    1  UNL1        0.0064
     31 C         141.9941  142.9117  159.6080 C.ar    1  UNL1        0.0235
     32 C         143.4580  142.7982  159.3011 C.ar    1  UNL1        0.1070
     33 N         144.4429  142.5857  160.4122 N.ar    1  UNL1       -0.2330
     34 S         144.9490  142.2741  162.9415 S.3     1  UNL1       -0.0950
     35 C         144.4637  143.3626  165.2501 C.3     1  UNL1        0.0130
     36 C         144.4683  142.1571  164.3575 C.3     1  UNL1        0.0637
     37 S         143.9369  142.8973  157.8830 S.3     1  UNL1       -0.0950
     38 C         144.4795  141.6837  157.1882 C.3     1  UNL1        0.0637
     39 C         143.9590  140.3219  157.5411 C.3     1  UNL1        0.0130
     40 C         140.0969  144.3901  161.0091 C.3     1  UNL1        0.0491
     41 C         139.7284  145.4012  162.0540 C.3     1  UNL1        0.0750
     42 N         140.1438  145.1916  163.4799 N.3     1  UNL1       -0.2702
     43 C         139.1184  144.8361  164.5154 C.3     1  UNL1        0.0897
     44 C         141.5847  145.3374  163.8705 C.3     1  UNL1        0.0897
@<TRIPOS>BOND
     1    35    36    1
     2    36    34    1
     3    34    28    1
     4    28    29   ar
     5    29    30   ar
     6    30    25    1
     7    25    26    1
     8    25    40    1
     9    40    41    1
    10    41    42    1
    11    42    43    1
    12    42    44    1
    13    25     1    1
    14     1     2    1
    15     2     3   ar
    16     3     4   ar
    17     4     5   ar
    18     5     6   ar
    19     6    12    1
    20    12    13    3
    21     6     7   ar
    22     7     8   ar
    23     8     9   ar
    24     9    10   ar
    25    10    11   ar
    26    11    14    1
    27    14    15    1
    28     1    16    1
    29    16    17   ar
    30    17    18   ar
    31    18    19   ar
    32    19    20   ar
    33    20    21   ar
    34    21    22    1
    35    22    23    1
    36    23    24    1
    37    30    31   ar
    38    31    32   ar
    39    32    37    1
    40    37    38    1
    41    38    39    1
    42    32    33   ar
    43    33    28   ar
    44    11     2   ar
    45    21    16   ar
    46     9     4   ar
    47    24    20    1
    48    26    27    1
