@<TRIPOS>MOLECULE
*****
 28 30 0 0 0
SMALL
GASTEIGER

@<TRIPOS>ATOM
      1 C         142.3487  142.7736  164.2247 C.ar    1  UNL1       -0.0149
      2 C         142.5923  143.0719  162.7750 C.ar    1  UNL1        0.0152
      3 C         141.5732  143.8388  161.9855 C.ar    1  UNL1        0.0809
      4 N         140.3105  144.3073  162.6457 N.ar    1  UNL1       -0.2414
      5 C         140.0668  144.0091  164.0954 C.ar    1  UNL1        0.1523
      6 C         141.0860  143.2422  164.8849 C.ar    1  UNL1        0.0192
      7 C         141.8169  144.1370  160.5357 C.ar    1  UNL1        0.0185
      8 C         141.0811  145.2603  159.8672 C.ar    1  UNL1        0.0015
      9 C         141.3247  145.5587  158.4175 C.ar    1  UNL1        0.0009
     10 C         142.3040  144.7337  157.6363 C.ar    1  UNL1        0.0114
     11 C         143.0397  143.6104  158.3048 C.ar    1  UNL1        0.0577
     12 CL        144.0191  142.7854  157.5236 Cl      1  UNL1       -0.0822
     13 C         142.7962  143.3121  159.7545 C.ar    1  UNL1        0.0129
     14 C         138.8041  144.4777  164.7556 C.3     1  UNL1        0.4348
     15 F         137.5413  144.9462  165.4158 F       1  UNL1       -0.1644
     16 F         138.2208  144.7995  163.4116 F       1  UNL1       -0.1644
     17 F         139.3873  144.1558  166.0995 F       1  UNL1       -0.1644
     18 C         143.3678  142.0068  165.0142 C.3     1  UNL1        0.0527
     19 C         142.4608  140.7493  169.2387 C.ar    1  UNL1       -0.0166
     20 C         142.1774  139.8143  168.1006 C.ar    1  UNL1       -0.0042
     21 C         142.4798  140.2334  166.6924 C.ar    1  UNL1       -0.0042
     22 C         143.0655  141.5877  166.4224 C.ar    1  UNL1       -0.0178
     23 C         143.3488  142.5227  167.5605 C.ar    1  UNL1       -0.0042
     24 C         143.0465  142.1036  168.9686 C.ar    1  UNL1       -0.0042
     25 C         142.1584  140.3302  170.6468 C.3     1  UNL1        0.0679
     26 O         139.6822  139.7110  171.1314 O.co2   1  UNL1       -0.5488
     27 C         140.8317  140.6659  171.2608 C.2     1  UNL1        0.0547
     28 O         140.6544  141.9566  172.0043 O.co2   1  UNL1       -0.5488
@<TRIPOS>UNITY_ATOM_ATTR
26 1
charge -1
@<TRIPOS>BOND
     1    26    27   ar
     2    27    28   ar
     3    27    25    1
     4    25    19    1
     5    19    20   ar
     6    20    21   ar
     7    21    22   ar
     8    22    18    1
     9    18     1    1
    10     1     2   ar
    11     2     3   ar
    12     3     7    1
    13     7     8   ar
    14     8     9   ar
    15     9    10   ar
    16    10    11   ar
    17    11    12    1
    18    11    13   ar
    19     3     4   ar
    20     4     5   ar
    21     5    14    1
    22    14    15    1
    23    14    16    1
    24    14    17    1
    25     5     6   ar
    26    22    23   ar
    27    23    24   ar
    28    24    19   ar
    29     6     1   ar
    30    13     7   ar
@<TRIPOS>MOLECULE
*****
 28 30 0 0 0
SMALL
GASTEIGER

@<TRIPOS>ATOM
      1 C         142.1997  142.8735  164.1413 C.ar    1  UNL1       -0.0149
      2 C         142.4291  143.1750  162.6898 C.ar    1  UNL1        0.0152
      3 C         141.3607  143.8565  161.8874 C.ar    1  UNL1        0.0809
      4 N         140.0628  144.2366  162.5363 N.ar    1  UNL1       -0.2414
      5 C         139.8333  143.9351  163.9876 C.ar    1  UNL1        0.1523
      6 C         140.9018  143.2535  164.7901 C.ar    1  UNL1        0.0192
      7 C         141.5902  144.1581  160.4360 C.ar    1  UNL1        0.0185
      8 C         142.7148  143.4919  159.7003 C.ar    1  UNL1        0.0015
      9 C         142.9443  143.7933  158.2489 C.ar    1  UNL1        0.0009
     10 C         142.0491  144.7610  157.5333 C.ar    1  UNL1        0.0114
     11 C         140.9244  145.4272  158.2690 C.ar    1  UNL1        0.0577
     12 CL        140.0292  146.3949  157.5533 Cl      1  UNL1       -0.0822
     13 C         140.6950  145.1257  159.7204 C.ar    1  UNL1        0.0129
     14 C         138.5354  144.3151  164.6365 C.3     1  UNL1        0.4348
     15 F         137.2376  144.6952  165.2854 F       1  UNL1       -0.1644
     16 F         139.2083  144.3241  165.9771 F       1  UNL1       -0.1644
     17 F         137.8626  144.3061  163.2959 F       1  UNL1       -0.1644
     18 C         143.2681  142.1920  164.9437 C.3     1  UNL1        0.0527
     19 C         142.3617  140.7041  169.0928 C.ar    1  UNL1       -0.0166
     20 C         142.9699  142.0614  168.8990 C.ar    1  UNL1       -0.0042
     21 C         143.2721  142.5574  167.5159 C.ar    1  UNL1       -0.0042
     22 C         142.9659  141.6960  166.3267 C.ar    1  UNL1       -0.0178
     23 C         142.3577  140.3387  166.5205 C.ar    1  UNL1       -0.0042
     24 C         142.0556  139.8427  167.9036 C.ar    1  UNL1       -0.0042
     25 C         142.0595  140.2081  170.4758 C.3     1  UNL1        0.0679
     26 O         140.6993  141.9267  171.8710 O.co2   1  UNL1       -0.5488
     27 C         140.7844  140.6112  171.1552 C.2     1  UNL1        0.0547
     28 O         139.5944  139.6988  171.1188 O.co2   1  UNL1       -0.5488
@<TRIPOS>UNITY_ATOM_ATTR
26 1
charge -1
@<TRIPOS>BOND
     1    26    27   ar
     2    27    28   ar
     3    27    25    1
     4    25    19    1
     5    19    20   ar
     6    20    21   ar
     7    21    22   ar
     8    22    18    1
     9    18     1    1
    10     1     2   ar
    11     2     3   ar
    12     3     7    1
    13     7     8   ar
    14     8     9   ar
    15     9    10   ar
    16    10    11   ar
    17    11    12    1
    18    11    13   ar
    19     3     4   ar
    20     4     5   ar
    21     5    14    1
    22    14    15    1
    23    14    16    1
    24    14    17    1
    25     5     6   ar
    26    22    23   ar
    27    23    24   ar
    28    24    19   ar
    29     6     1   ar
    30    13     7   ar
@<TRIPOS>MOLECULE
*****
 28 30 0 0 0
SMALL
GASTEIGER

@<TRIPOS>ATOM
      1 C         143.3711  142.3854  166.9161 C.ar    1  UNL1       -0.0149
      2 C         142.4958  141.3936  166.2088 C.ar    1  UNL1        0.0152
      3 C         141.4955  140.5888  166.9845 C.ar    1  UNL1        0.0809
      4 N         141.3705  140.7758  168.4676 N.ar    1  UNL1       -0.2414
      5 C         142.2458  141.7675  169.1749 C.ar    1  UNL1        0.1523
      6 C         143.2461  142.5723  168.3991 C.ar    1  UNL1        0.0192
      7 C         140.6202  139.5970  166.2772 C.ar    1  UNL1        0.0185
      8 C         139.1731  139.4726  166.6520 C.ar    1  UNL1        0.0015
      9 C         138.2978  138.4808  165.9448 C.ar    1  UNL1        0.0009
     10 C         138.8696  137.6136  164.8627 C.ar    1  UNL1        0.0114
     11 C         140.3166  137.7380  164.4879 C.ar    1  UNL1        0.0577
     12 CL        140.8884  136.8707  163.4058 Cl      1  UNL1       -0.0822
     13 C         141.1920  138.7298  165.1951 C.ar    1  UNL1        0.0129
     14 C         142.1208  141.9545  170.6579 C.3     1  UNL1        0.4348
     15 F         141.9958  142.1414  172.1410 F       1  UNL1       -0.1644
     16 F         141.6203  140.5469  170.7932 F       1  UNL1       -0.1644
     17 F         142.6214  143.3620  170.5227 F       1  UNL1       -0.1644
     18 C         144.3714  143.1901  166.1404 C.3     1  UNL1        0.0527
     19 C         144.5915  142.7947  161.6632 C.ar    1  UNL1       -0.0166
     20 C         143.7691  143.8870  162.2801 C.ar    1  UNL1       -0.0042
     21 C         143.6958  144.0188  163.7725 C.ar    1  UNL1       -0.0042
     22 C         144.4447  143.0583  164.6480 C.ar    1  UNL1       -0.0178
     23 C         145.2671  141.9660  164.0310 C.ar    1  UNL1       -0.0042
     24 C         145.3404  141.8342  162.5386 C.ar    1  UNL1       -0.0042
     25 C         144.6648  142.6629  160.1708 C.3     1  UNL1        0.0679
     26 O         142.6597  141.4701  159.0275 O.co2   1  UNL1       -0.5488
     27 C         143.4113  142.7278  159.3496 C.2     1  UNL1        0.0547
     28 O         142.9092  144.0502  158.8505 O.co2   1  UNL1       -0.5488
@<TRIPOS>UNITY_ATOM_ATTR
26 1
charge -1
@<TRIPOS>BOND
     1    26    27   ar
     2    27    28   ar
     3    27    25    1
     4    25    19    1
     5    19    20   ar
     6    20    21   ar
     7    21    22   ar
     8    22    18    1
     9    18     1    1
    10     1     2   ar
    11     2     3   ar
    12     3     7    1
    13     7     8   ar
    14     8     9   ar
    15     9    10   ar
    16    10    11   ar
    17    11    12    1
    18    11    13   ar
    19     3     4   ar
    20     4     5   ar
    21     5    14    1
    22    14    15    1
    23    14    16    1
    24    14    17    1
    25     5     6   ar
    26    22    23   ar
    27    23    24   ar
    28    24    19   ar
    29     6     1   ar
    30    13     7   ar
@<TRIPOS>MOLECULE
*****
 28 30 0 0 0
SMALL
GASTEIGER

@<TRIPOS>ATOM
      1 C         139.3879  139.8808  166.4158 C.ar    1  UNL1       -0.0149
      2 C         140.3036  140.8362  165.7096 C.ar    1  UNL1        0.0152
      3 C         141.2600  141.6803  166.4988 C.ar    1  UNL1        0.0809
      4 N         141.3008  141.5689  167.9941 N.ar    1  UNL1       -0.2414
      5 C         140.3851  140.6134  168.7003 C.ar    1  UNL1        0.1523
      6 C         139.4286  139.7694  167.9111 C.ar    1  UNL1        0.0192
      7 C         142.1758  142.6357  165.7927 C.ar    1  UNL1        0.0185
      8 C         143.6425  142.6394  166.1067 C.ar    1  UNL1        0.0015
      9 C         144.5583  143.5949  165.4006 C.ar    1  UNL1        0.0009
     10 C         144.0072  144.5466  164.3806 C.ar    1  UNL1        0.0114
     11 C         142.5405  144.5429  164.0666 C.ar    1  UNL1        0.0577
     12 CL        141.9894  145.4947  163.0465 Cl      1  UNL1       -0.0822
     13 C         141.6247  143.5875  164.7726 C.ar    1  UNL1        0.0129
     14 C         140.4259  140.5020  170.1956 C.3     1  UNL1        0.4348
     15 F         140.4666  140.3906  171.6909 F       1  UNL1       -0.1644
     16 F         141.3374  139.3162  170.0824 F       1  UNL1       -0.1644
     17 F         139.5143  141.6879  170.3087 F       1  UNL1       -0.1644
     18 C         138.4314  139.0367  165.6266 C.3     1  UNL1        0.0527
     19 C         137.9441  139.7235  161.2061 C.ar    1  UNL1       -0.0166
     20 C         138.4935  138.4206  161.7066 C.ar    1  UNL1       -0.0042
     21 C         138.6560  138.1917  163.1801 C.ar    1  UNL1       -0.0042
     22 C         138.2690  139.2657  164.1531 C.ar    1  UNL1       -0.0178
     23 C         137.7196  140.5685  163.6526 C.ar    1  UNL1       -0.0042
     24 C         137.5571  140.7975  162.1791 C.ar    1  UNL1       -0.0042
     25 C         137.7817  139.9524  159.7326 C.3     1  UNL1        0.0679
     26 O         139.2076  138.7879  157.8993 O.co2   1  UNL1       -0.5488
     27 C         138.9830  139.9390  158.8346 C.2     1  UNL1        0.0547
     28 O         139.9599  141.0767  158.8718 O.co2   1  UNL1       -0.5488
@<TRIPOS>UNITY_ATOM_ATTR
26 1
charge -1
@<TRIPOS>BOND
     1    26    27   ar
     2    27    28   ar
     3    27    25    1
     4    25    19    1
     5    19    20   ar
     6    20    21   ar
     7    21    22   ar
     8    22    18    1
     9    18     1    1
    10     1     2   ar
    11     2     3   ar
    12     3     7    1
    13     7     8   ar
    14     8     9   ar
    15     9    10   ar
    16    10    11   ar
    17    11    12    1
    18    11    13   ar
    19     3     4   ar
    20     4     5   ar
    21     5    14    1
    22    14    15    1
    23    14    16    1
    24    14    17    1
    25     5     6   ar
    26    22    23   ar
    27    23    24   ar
    28    24    19   ar
    29     6     1   ar
    30    13     7   ar
@<TRIPOS>MOLECULE
*****
 28 30 0 0 0
SMALL
GASTEIGER

@<TRIPOS>ATOM
      1 C         140.2230  138.2483  163.9306 C.ar    1  UNL1       -0.0149
      2 C         140.2054  139.7411  163.7839 C.ar    1  UNL1        0.0152
      3 C         139.3213  140.5711  164.6666 C.ar    1  UNL1        0.0809
      4 N         138.4545  139.9085  165.6960 N.ar    1  UNL1       -0.2414
      5 C         138.4720  138.4158  165.8428 C.ar    1  UNL1        0.1523
      6 C         139.3562  137.5857  164.9600 C.ar    1  UNL1        0.0192
      7 C         139.3037  142.0639  164.5199 C.ar    1  UNL1        0.0185
      8 C         138.0019  142.8072  164.5705 C.ar    1  UNL1        0.0015
      9 C         137.9843  144.2999  164.4238 C.ar    1  UNL1        0.0009
     10 C         139.2686  145.0492  164.2265 C.ar    1  UNL1        0.0114
     11 C         140.5705  144.3059  164.1759 C.ar    1  UNL1        0.0577
     12 CL        141.8549  145.0553  163.9786 Cl      1  UNL1       -0.0822
     13 C         140.5881  142.8132  164.3226 C.ar    1  UNL1        0.0129
     14 C         137.6053  137.7532  166.8722 C.3     1  UNL1        0.4348
     15 F         136.7386  137.0906  167.9016 F       1  UNL1       -0.1644
     16 F         137.4653  139.0599  167.5954 F       1  UNL1       -0.1644
     17 F         137.7453  136.4466  166.1489 F       1  UNL1       -0.1644
     18 C         141.1072  137.4183  163.0479 C.3     1  UNL1        0.0527
     19 C         143.1905  139.3073  159.5349 C.ar    1  UNL1       -0.0166
     20 C         143.9656  138.9703  160.7740 C.ar    1  UNL1       -0.0042
     21 C         143.2712  138.3406  161.9451 C.ar    1  UNL1       -0.0042
     22 C         141.8016  138.0480  161.8769 C.ar    1  UNL1       -0.0178
     23 C         141.0265  138.3850  160.6378 C.ar    1  UNL1       -0.0042
     24 C         141.7209  139.0147  159.4668 C.ar    1  UNL1       -0.0042
     25 C         143.8849  139.9370  158.3639 C.3     1  UNL1        0.0679
     26 O         145.2472  141.9363  157.4168 O.co2   1  UNL1       -0.5488
     27 C         144.2641  141.3876  158.4080 C.2     1  UNL1        0.0547
     28 O         143.6601  142.2895  159.4433 O.co2   1  UNL1       -0.5488
@<TRIPOS>UNITY_ATOM_ATTR
26 1
charge -1
@<TRIPOS>BOND
     1    26    27   ar
     2    27    28   ar
     3    27    25    1
     4    25    19    1
     5    19    20   ar
     6    20    21   ar
     7    21    22   ar
     8    22    18    1
     9    18     1    1
    10     1     2   ar
    11     2     3   ar
    12     3     7    1
    13     7     8   ar
    14     8     9   ar
    15     9    10   ar
    16    10    11   ar
    17    11    12    1
    18    11    13   ar
    19     3     4   ar
    20     4     5   ar
    21     5    14    1
    22    14    15    1
    23    14    16    1
    24    14    17    1
    25     5     6   ar
    26    22    23   ar
    27    23    24   ar
    28    24    19   ar
    29     6     1   ar
    30    13     7   ar
@<TRIPOS>MOLECULE
*****
 28 30 0 0 0
SMALL
GASTEIGER

@<TRIPOS>ATOM
      1 C         141.7530  140.3237  166.7530 C.ar    1  UNL1       -0.0149
      2 C         141.1063  141.1516  165.6822 C.ar    1  UNL1        0.0152
      3 C         140.2711  142.3404  166.0551 C.ar    1  UNL1        0.0809
      4 N         140.0825  142.7013  167.4987 N.ar    1  UNL1       -0.2414
      5 C         140.7291  141.8735  168.5695 C.ar    1  UNL1        0.1523
      6 C         141.5644  140.6847  168.1966 C.ar    1  UNL1        0.0192
      7 C         139.6244  143.1682  164.9843 C.ar    1  UNL1        0.0185
      8 C         138.1653  142.9964  164.6820 C.ar    1  UNL1        0.0015
      9 C         137.5186  143.8242  163.6113 C.ar    1  UNL1        0.0009
     10 C         138.3311  144.8239  162.8429 C.ar    1  UNL1        0.0114
     11 C         139.7902  144.9957  163.1452 C.ar    1  UNL1        0.0577
     12 CL        140.6027  145.9955  162.3767 Cl      1  UNL1       -0.0822
     13 C         140.4369  144.1679  164.2159 C.ar    1  UNL1        0.0129
     14 C         140.5405  142.2345  170.0131 C.3     1  UNL1        0.4348
     15 F         140.3518  142.5955  171.4568 F       1  UNL1       -0.1644
     16 F         140.4959  140.7786  170.3714 F       1  UNL1       -0.1644
     17 F         140.5850  143.6904  169.6549 F       1  UNL1       -0.1644
     18 C         142.5883  139.1349  166.3801 C.3     1  UNL1        0.0527
     19 C         143.1053  138.0167  162.0520 C.ar    1  UNL1       -0.0166
     20 C         144.1428  138.8539  162.7394 C.ar    1  UNL1       -0.0042
     21 C         143.9705  139.2266  164.1821 C.ar    1  UNL1       -0.0042
     22 C         142.7606  138.7622  164.9374 C.ar    1  UNL1       -0.0178
     23 C         141.7231  137.9250  164.2500 C.ar    1  UNL1       -0.0042
     24 C         141.8954  137.5522  162.8073 C.ar    1  UNL1       -0.0042
     25 C         143.2776  137.6440  160.6093 C.3     1  UNL1        0.0679
     26 O         141.4758  138.7938  159.1322 O.co2   1  UNL1       -0.5488
     27 C         142.9112  138.6223  159.5330 C.2     1  UNL1        0.0547
     28 O         143.9800  139.4293  158.8574 O.co2   1  UNL1       -0.5488
@<TRIPOS>UNITY_ATOM_ATTR
26 1
charge -1
@<TRIPOS>BOND
     1    26    27   ar
     2    27    28   ar
     3    27    25    1
     4    25    19    1
     5    19    20   ar
     6    20    21   ar
     7    21    22   ar
     8    22    18    1
     9    18     1    1
    10     1     2   ar
    11     2     3   ar
    12     3     7    1
    13     7     8   ar
    14     8     9   ar
    15     9    10   ar
    16    10    11   ar
    17    11    12    1
    18    11    13   ar
    19     3     4   ar
    20     4     5   ar
    21     5    14    1
    22    14    15    1
    23    14    16    1
    24    14    17    1
    25     5     6   ar
    26    22    23   ar
    27    23    24   ar
    28    24    19   ar
    29     6     1   ar
    30    13     7   ar
@<TRIPOS>MOLECULE
*****
 28 30 0 0 0
SMALL
GASTEIGER

@<TRIPOS>ATOM
      1 C         142.3968  139.2624  163.9393 C.ar    1  UNL1       -0.0149
      2 C         141.9863  140.6950  163.7683 C.ar    1  UNL1        0.0152
      3 C         141.8216  141.2689  162.3923 C.ar    1  UNL1        0.0809
      4 N         142.0674  140.4102  161.1872 N.ar    1  UNL1       -0.2414
      5 C         142.4778  138.9776  161.3581 C.ar    1  UNL1        0.1523
      6 C         142.6425  138.4037  162.7342 C.ar    1  UNL1        0.0192
      7 C         141.4111  142.7015  162.2213 C.ar    1  UNL1        0.0185
      8 C         141.2347  143.5799  163.4244 C.ar    1  UNL1        0.0015
      9 C         140.8243  145.0124  163.2534 C.ar    1  UNL1        0.0009
     10 C         140.5902  145.5666  161.8794 C.ar    1  UNL1        0.0114
     11 C         140.7667  144.6883  160.6763 C.ar    1  UNL1        0.0577
     12 CL        140.5326  145.2426  159.3022 Cl      1  UNL1       -0.0822
     13 C         141.1771  143.2557  160.8472 C.ar    1  UNL1        0.0129
     14 C         142.7236  138.1190  160.1531 C.3     1  UNL1        0.4348
     15 F         142.9694  137.2603  158.9480 F       1  UNL1       -0.1644
     16 F         143.7570  137.3442  160.9159 F       1  UNL1       -0.1644
     17 F         141.6902  138.8937  159.3902 F       1  UNL1       -0.1644
     18 C         142.5614  138.6885  165.3154 C.3     1  UNL1        0.0527
     19 C         140.2688  140.4357  168.7710 C.ar    1  UNL1       -0.0166
     20 C         141.7603  140.2988  168.8530 C.ar    1  UNL1       -0.0042
     21 C         142.5245  139.7164  167.7011 C.ar    1  UNL1       -0.0042
     22 C         141.7972  139.2709  166.4672 C.ar    1  UNL1       -0.0178
     23 C         140.3058  139.4078  166.3852 C.ar    1  UNL1       -0.0042
     24 C         139.5416  139.9902  167.5371 C.ar    1  UNL1       -0.0042
     25 C         139.5047  141.0180  169.9229 C.3     1  UNL1        0.0679
     26 O         140.4519  142.2674  171.9946 O.co2   1  UNL1       -0.5488
     27 C         139.9766  142.2853  170.5720 C.2     1  UNL1        0.0547
     28 O         139.9733  143.5705  169.7985 O.co2   1  UNL1       -0.5488
@<TRIPOS>UNITY_ATOM_ATTR
26 1
charge -1
@<TRIPOS>BOND
     1    26    27   ar
     2    27    28   ar
     3    27    25    1
     4    25    19    1
     5    19    20   ar
     6    20    21   ar
     7    21    22   ar
     8    22    18    1
     9    18     1    1
    10     1     2   ar
    11     2     3   ar
    12     3     7    1
    13     7     8   ar
    14     8     9   ar
    15     9    10   ar
    16    10    11   ar
    17    11    12    1
    18    11    13   ar
    19     3     4   ar
    20     4     5   ar
    21     5    14    1
    22    14    15    1
    23    14    16    1
    24    14    17    1
    25     5     6   ar
    26    22    23   ar
    27    23    24   ar
    28    24    19   ar
    29     6     1   ar
    30    13     7   ar
@<TRIPOS>MOLECULE
*****
 28 30 0 0 0
SMALL
GASTEIGER

@<TRIPOS>ATOM
      1 C         143.7098  142.3558  163.5867 C.ar    1  UNL1       -0.0149
      2 C         143.2057  143.2305  162.4772 C.ar    1  UNL1        0.0152
      3 C         142.9596  142.6490  161.1166 C.ar    1  UNL1        0.0809
      4 N         143.2175  141.1928  160.8654 N.ar    1  UNL1       -0.2414
      5 C         143.7215  140.3182  161.9749 C.ar    1  UNL1        0.1523
      6 C         143.9677  140.8997  163.3355 C.ar    1  UNL1        0.0192
      7 C         142.4555  143.5237  160.0071 C.ar    1  UNL1        0.0185
      8 C         141.4982  144.6388  160.3071 C.ar    1  UNL1        0.0015
      9 C         140.9941  145.5135  159.1977 C.ar    1  UNL1        0.0009
     10 C         141.4474  145.2730  157.7882 C.ar    1  UNL1        0.0114
     11 C         142.4047  144.1579  157.4882 C.ar    1  UNL1        0.0577
     12 CL        142.8580  143.9174  156.0786 Cl      1  UNL1       -0.0822
     13 C         142.9088  143.2832  158.5976 C.ar    1  UNL1        0.0129
     14 C         143.9794  138.8620  161.7237 C.3     1  UNL1        0.4348
     15 F         144.2373  137.4059  161.4725 F       1  UNL1       -0.1644
     16 F         144.1549  139.1453  160.2612 F       1  UNL1       -0.1644
     17 F         143.8040  138.5787  163.1862 F       1  UNL1       -0.1644
     18 C         143.9559  142.9374  164.9473 C.3     1  UNL1        0.0527
     19 C         140.9927  142.2411  168.2615 C.ar    1  UNL1       -0.0166
     20 C         142.4641  142.1688  168.5436 C.ar    1  UNL1       -0.0042
     21 C         143.4518  142.4009  167.4388 C.ar    1  UNL1       -0.0042
     22 C         142.9682  142.7053  166.0520 C.ar    1  UNL1       -0.0178
     23 C         141.4968  142.7776  165.7699 C.ar    1  UNL1       -0.0042
     24 C         140.5090  142.5455  166.8747 C.ar    1  UNL1       -0.0042
     25 C         140.0049  142.0090  169.3662 C.3     1  UNL1        0.0679
     26 O         140.3587  142.2449  171.9293 O.co2   1  UNL1       -0.5488
     27 C         140.0442  142.8626  170.5990 C.2     1  UNL1        0.0547
     28 O         139.7690  144.3339  170.5016 O.co2   1  UNL1       -0.5488
@<TRIPOS>UNITY_ATOM_ATTR
26 1
charge -1
@<TRIPOS>BOND
     1    26    27   ar
     2    27    28   ar
     3    27    25    1
     4    25    19    1
     5    19    20   ar
     6    20    21   ar
     7    21    22   ar
     8    22    18    1
     9    18     1    1
    10     1     2   ar
    11     2     3   ar
    12     3     7    1
    13     7     8   ar
    14     8     9   ar
    15     9    10   ar
    16    10    11   ar
    17    11    12    1
    18    11    13   ar
    19     3     4   ar
    20     4     5   ar
    21     5    14    1
    22    14    15    1
    23    14    16    1
    24    14    17    1
    25     5     6   ar
    26    22    23   ar
    27    23    24   ar
    28    24    19   ar
    29     6     1   ar
    30    13     7   ar
@<TRIPOS>MOLECULE
*****
 28 30 0 0 0
SMALL
GASTEIGER

@<TRIPOS>ATOM
      1 C         143.0113  140.3560  164.2997 C.ar    1  UNL1       -0.0149
      2 C         143.1001  140.0355  162.8369 C.ar    1  UNL1        0.0152
      3 C         143.4694  141.1078  161.8553 C.ar    1  UNL1        0.0809
      4 N         143.7499  142.5007  162.3362 N.ar    1  UNL1       -0.2414
      5 C         143.6610  142.8212  163.7988 C.ar    1  UNL1        0.1523
      6 C         143.2917  141.7489  164.7806 C.ar    1  UNL1        0.0192
      7 C         143.5582  140.7873  160.3926 C.ar    1  UNL1        0.0185
      8 C         142.9688  139.5120  159.8671 C.ar    1  UNL1        0.0015
      9 C         143.0576  139.1914  158.4045 C.ar    1  UNL1        0.0009
     10 C         143.7359  140.1462  157.4673 C.ar    1  UNL1        0.0114
     11 C         144.3253  141.4215  157.9928 C.ar    1  UNL1        0.0577
     12 CL        145.0036  142.3763  157.0555 Cl      1  UNL1       -0.0822
     13 C         144.2365  141.7421  159.4554 C.ar    1  UNL1        0.0129
     14 C         143.9415  144.2141  164.2798 C.3     1  UNL1        0.4348
     15 F         144.2219  145.6069  164.7607 F       1  UNL1       -0.1644
     16 F         143.4197  144.7658  162.9862 F       1  UNL1       -0.1644
     17 F         144.4633  143.6624  165.5733 F       1  UNL1       -0.1644
     18 C         142.6420  139.2837  165.2813 C.3     1  UNL1        0.0527
     19 C         140.6492  140.3779  169.1649 C.ar    1  UNL1       -0.0166
     20 C         139.8695  140.4190  167.8841 C.ar    1  UNL1       -0.0042
     21 C         140.5338  140.0543  166.5896 C.ar    1  UNL1       -0.0042
     22 C         141.9778  139.6484  166.5759 C.ar    1  UNL1       -0.0178
     23 C         142.7574  139.6073  167.8566 C.ar    1  UNL1       -0.0042
     24 C         142.0932  139.9720  169.1511 C.ar    1  UNL1       -0.0042
     25 C         139.9850  140.7426  170.4594 C.3     1  UNL1        0.0679
     26 O         139.3437  143.1793  171.0929 O.co2   1  UNL1       -0.5488
     27 C         140.3186  142.0400  171.1341 C.2     1  UNL1        0.0547
     28 O         141.6272  142.1982  171.8501 O.co2   1  UNL1       -0.5488
@<TRIPOS>UNITY_ATOM_ATTR
26 1
charge -1
@<TRIPOS>BOND
     1    26    27   ar
     2    27    28   ar
     3    27    25    1
     4    25    19    1
     5    19    20   ar
     6    20    21   ar
     7    21    22   ar
     8    22    18    1
     9    18     1    1
    10     1     2   ar
    11     2     3   ar
    12     3     7    1
    13     7     8   ar
    14     8     9   ar
    15     9    10   ar
    16    10    11   ar
    17    11    12    1
    18    11    13   ar
    19     3     4   ar
    20     4     5   ar
    21     5    14    1
    22    14    15    1
    23    14    16    1
    24    14    17    1
    25     5     6   ar
    26    22    23   ar
    27    23    24   ar
    28    24    19   ar
    29     6     1   ar
    30    13     7   ar
