@<TRIPOS>MOLECULE
*****
 29 32 0 0 0
SMALL
GASTEIGER

@<TRIPOS>ATOM
      1 C         140.8797  145.3424  158.6036 C.ar    1  UNL1        0.1680
      2 N         142.1363  144.8919  159.2876 N.ar    1  UNL1       -0.2213
      3 C         141.7692  144.4055  160.6583 C.ar    1  UNL1        0.0989
      4 C         140.2856  144.5553  160.8213 C.ar    1  UNL1        0.0760
      5 N         139.7358  145.1343  159.5515 N.ar    1  UNL1       -0.3324
      6 H         138.7903  145.3414  159.3718 H       1  UNL1        0.1679
      7 C         142.7189  143.8643  161.6855 C.ar    1  UNL1        0.0193
      8 C         143.0916  144.6980  162.8755 C.ar    1  UNL1        0.0038
      9 C         144.0413  144.1568  163.9026 C.ar    1  UNL1        0.0297
     10 C         144.6183  142.7818  163.7398 C.ar    1  UNL1        0.1401
     11 F         145.5681  142.2406  164.7670 F       1  UNL1       -0.2042
     12 C         144.2457  141.9481  162.5498 C.ar    1  UNL1        0.0297
     13 C         143.2960  142.4893  161.5227 C.ar    1  UNL1        0.0038
     14 C         139.4913  144.1902  162.0402 C.ar    1  UNL1        0.0214
     15 C         139.4488  145.1224  163.2147 C.ar    1  UNL1        0.0222
     16 C         138.6545  144.7574  164.4336 C.ar    1  UNL1        0.1004
     17 N         137.9025  143.4602  164.4781 N.ar    1  UNL1       -0.2291
     18 C         137.9450  142.5281  163.3036 C.ar    1  UNL1        0.1322
     19 C         138.7394  142.8931  162.0848 C.ar    1  UNL1        0.0359
     20 N         137.1931  141.2309  163.3481 N.pl3   1  UNL1       -0.2979
     21 H         136.2518  141.1975  163.0617 H       1  UNL1        0.1536
     22 C         137.8754  139.9846  163.8289 C.ar    1  UNL1        0.0494
     23 C         138.1402  139.7917  165.2928 C.ar    1  UNL1        0.0146
     24 C         138.8225  138.5454  165.7736 C.ar    1  UNL1        0.0013
     25 C         139.2401  137.4920  164.7907 C.ar    1  UNL1        0.0001
     26 C         138.9753  137.6849  163.3269 C.ar    1  UNL1        0.0013
     27 C         138.2929  138.9312  162.8460 C.ar    1  UNL1        0.0146
     28 C         139.5996  146.7357  156.8231 C.3     1  UNL1        0.0772
     29 S         140.7836  145.9025  157.2154 S.3     1  UNL1       -0.0766
@<TRIPOS>BOND
     1    28    29    1
     2    29     1    1
     3     1     2   ar
     4     2     3   ar
     5     3     7    1
     6     7     8   ar
     7     8     9   ar
     8     9    10   ar
     9    10    11    1
    10    10    12   ar
    11    12    13   ar
    12     3     4   ar
    13     4    14    1
    14    14    15   ar
    15    15    16   ar
    16    16    17   ar
    17    17    18   ar
    18    18    20    1
    19    20    22    1
    20    22    23   ar
    21    23    24   ar
    22    24    25   ar
    23    25    26   ar
    24    26    27   ar
    25    18    19   ar
    26     4     5   ar
    27     5     1   ar
    28    13     7   ar
    29    19    14   ar
    30    27    22   ar
    31    20    21    1
    32     5     6    1
@<TRIPOS>MOLECULE
*****
 29 32 0 0 0
SMALL
GASTEIGER

@<TRIPOS>ATOM
      1 C         140.4065  140.0795  169.1751 C.ar    1  UNL1        0.1680
      2 N         141.6886  140.4227  168.4763 N.ar    1  UNL1       -0.2213
      3 C         141.4909  140.1952  167.0068 C.ar    1  UNL1        0.0989
      4 C         140.0867  139.7113  166.7975 C.ar    1  UNL1        0.0760
      5 N         139.4164  139.6398  168.1375 N.ar    1  UNL1       -0.3324
      6 H         138.4894  139.3544  168.3063 H       1  UNL1        0.1679
      7 C         142.5174  140.4133  165.9350 C.ar    1  UNL1        0.0193
      8 C         142.8611  141.8065  165.4980 C.ar    1  UNL1        0.0038
      9 C         143.8876  142.0245  164.4262 C.ar    1  UNL1        0.0297
     10 C         144.5703  140.8494  163.7913 C.ar    1  UNL1        0.1401
     11 F         145.5968  141.0675  162.7195 F       1  UNL1       -0.2042
     12 C         144.2266  139.4563  164.2283 C.ar    1  UNL1        0.0297
     13 C         143.2002  139.2382  165.3001 C.ar    1  UNL1        0.0038
     14 C         139.4622  139.3606  165.4795 C.ar    1  UNL1        0.0214
     15 C         139.5444  137.9554  164.9610 C.ar    1  UNL1        0.0222
     16 C         138.9200  137.6046  163.6431 C.ar    1  UNL1        0.1004
     17 N         138.2134  138.6589  162.8435 N.ar    1  UNL1       -0.2291
     18 C         138.1313  140.0640  163.3620 C.ar    1  UNL1        0.1322
     19 C         138.7557  140.4148  164.6800 C.ar    1  UNL1        0.0359
     20 N         137.4247  141.1184  162.5626 N.pl3   1  UNL1       -0.2979
     21 H         136.5178  140.9501  162.2186 H       1  UNL1        0.1536
     22 C         138.1001  142.4292  162.2872 C.ar    1  UNL1        0.0494
     23 C         137.8148  143.6172  163.1574 C.ar    1  UNL1        0.0146
     24 C         138.4901  144.9279  162.8821 C.ar    1  UNL1        0.0013
     25 C         139.4507  145.0508  161.7365 C.ar    1  UNL1        0.0001
     26 C         139.7359  143.8627  160.8663 C.ar    1  UNL1        0.0013
     27 C         139.0606  142.5519  161.1416 C.ar    1  UNL1        0.0146
     28 C         141.0248  141.0336  171.5111 C.3     1  UNL1        0.0772
     29 S         140.1580  140.1615  170.6520 S.3     1  UNL1       -0.0766
@<TRIPOS>BOND
     1    28    29    1
     2    29     1    1
     3     1     2   ar
     4     2     3   ar
     5     3     7    1
     6     7     8   ar
     7     8     9   ar
     8     9    10   ar
     9    10    11    1
    10    10    12   ar
    11    12    13   ar
    12     3     4   ar
    13     4    14    1
    14    14    15   ar
    15    15    16   ar
    16    16    17   ar
    17    17    18   ar
    18    18    20    1
    19    20    22    1
    20    22    23   ar
    21    23    24   ar
    22    24    25   ar
    23    25    26   ar
    24    26    27   ar
    25    18    19   ar
    26     4     5   ar
    27     5     1   ar
    28    13     7   ar
    29    19    14   ar
    30    27    22   ar
    31    20    21    1
    32     5     6    1
@<TRIPOS>MOLECULE
*****
 29 32 0 0 0
SMALL
GASTEIGER

@<TRIPOS>ATOM
      1 C         141.9113  142.0043  168.8063 C.ar    1  UNL1        0.1680
      2 N         142.9629  142.0568  167.7379 N.ar    1  UNL1       -0.2213
      3 C         142.2911  142.4058  166.4430 C.ar    1  UNL1        0.0989
      4 C         140.8243  142.5689  166.7110 C.ar    1  UNL1        0.0760
      5 N         140.5896  142.3208  168.1716 N.ar    1  UNL1       -0.3324
      6 H         139.7206  142.3590  168.6327 H       1  UNL1        0.1679
      7 C         142.9674  142.5638  165.1134 C.ar    1  UNL1        0.0193
      8 C         143.3486  141.3512  164.3170 C.ar    1  UNL1        0.0038
      9 C         144.0248  141.5093  162.9875 C.ar    1  UNL1        0.0297
     10 C         144.3199  142.8800  162.4544 C.ar    1  UNL1        0.1401
     11 F         144.9962  143.0381  161.1248 F       1  UNL1       -0.2042
     12 C         143.9388  144.0926  163.2508 C.ar    1  UNL1        0.0297
     13 C         143.2625  143.9345  164.5803 C.ar    1  UNL1        0.0038
     14 C         139.7762  142.9187  165.6966 C.ar    1  UNL1        0.0214
     15 C         139.5211  144.3549  165.3464 C.ar    1  UNL1        0.0222
     16 C         138.4730  144.7047  164.3320 C.ar    1  UNL1        0.1004
     17 N         137.6799  143.6185  163.6677 N.ar    1  UNL1       -0.2291
     18 C         137.9350  142.1824  164.0179 C.ar    1  UNL1        0.1322
     19 C         138.9831  141.8326  165.0323 C.ar    1  UNL1        0.0359
     20 N         137.1420  141.0962  163.3536 N.pl3   1  UNL1       -0.2979
     21 H         136.1769  141.0134  163.5297 H       1  UNL1        0.1536
     22 C         137.8194  140.1361  162.4212 C.ar    1  UNL1        0.0494
     23 C         138.4232  138.8713  162.9557 C.ar    1  UNL1        0.0146
     24 C         139.1006  137.9112  162.0233 C.ar    1  UNL1        0.0013
     25 C         139.1742  138.2159  160.5564 C.ar    1  UNL1        0.0001
     26 C         138.5705  139.4808  160.0220 C.ar    1  UNL1        0.0013
     27 C         137.8930  140.4409  160.9543 C.ar    1  UNL1        0.0146
     28 C         140.9958  141.7338  171.2226 C.3     1  UNL1        0.0772
     29 S         142.1411  141.6904  170.2550 S.3     1  UNL1       -0.0766
@<TRIPOS>BOND
     1    28    29    1
     2    29     1    1
     3     1     2   ar
     4     2     3   ar
     5     3     7    1
     6     7     8   ar
     7     8     9   ar
     8     9    10   ar
     9    10    11    1
    10    10    12   ar
    11    12    13   ar
    12     3     4   ar
    13     4    14    1
    14    14    15   ar
    15    15    16   ar
    16    16    17   ar
    17    17    18   ar
    18    18    20    1
    19    20    22    1
    20    22    23   ar
    21    23    24   ar
    22    24    25   ar
    23    25    26   ar
    24    26    27   ar
    25    18    19   ar
    26     4     5   ar
    27     5     1   ar
    28    13     7   ar
    29    19    14   ar
    30    27    22   ar
    31    20    21    1
    32     5     6    1
@<TRIPOS>MOLECULE
*****
 29 32 0 0 0
SMALL
GASTEIGER

@<TRIPOS>ATOM
      1 C         140.5341  140.0925  169.1038 C.ar    1  UNL1        0.1680
      2 N         139.5372  139.6782  168.0624 N.ar    1  UNL1       -0.2213
      3 C         140.2217  139.7070  166.7280 C.ar    1  UNL1        0.0989
      4 C         141.6417  140.1391  166.9447 C.ar    1  UNL1        0.0760
      5 N         141.8348  140.3774  168.4130 N.ar    1  UNL1       -0.3324
      6 H         142.6687  140.6694  168.8471 H       1  UNL1        0.1679
      7 C         139.5961  139.3639  165.4085 C.ar    1  UNL1        0.0193
      8 C         138.8056  140.3972  164.6619 C.ar    1  UNL1        0.0038
      9 C         138.1800  140.0541  163.3426 C.ar    1  UNL1        0.0297
     10 C         138.3449  138.6776  162.7697 C.ar    1  UNL1        0.1401
     11 F         137.7193  138.3345  161.4502 F       1  UNL1       -0.2042
     12 C         139.1354  137.6443  163.5162 C.ar    1  UNL1        0.0297
     13 C         139.7609  137.9874  164.8356 C.ar    1  UNL1        0.0038
     14 C         142.6854  140.3040  165.8800 C.ar    1  UNL1        0.0214
     15 C         143.5054  139.1257  165.4448 C.ar    1  UNL1        0.0222
     16 C         144.5491  139.2906  164.3801 C.ar    1  UNL1        0.1004
     17 N         144.7729  140.6336  163.7507 N.ar    1  UNL1       -0.2291
     18 C         143.9529  141.8118  164.1859 C.ar    1  UNL1        0.1322
     19 C         142.9092  141.6469  165.2506 C.ar    1  UNL1        0.0359
     20 N         144.1766  143.1549  163.5565 N.pl3   1  UNL1       -0.2979
     21 H         145.0579  143.5886  163.6222 H       1  UNL1        0.1536
     22 C         143.0574  143.8371  162.8271 C.ar    1  UNL1        0.0494
     23 C         142.1477  144.7778  163.5604 C.ar    1  UNL1        0.0146
     24 C         141.0286  145.4600  162.8310 C.ar    1  UNL1        0.0013
     25 C         140.8190  145.2016  161.3683 C.ar    1  UNL1        0.0001
     26 C         141.7287  144.2609  160.6351 C.ar    1  UNL1        0.0013
     27 C         142.8479  143.5786  161.3644 C.ar    1  UNL1        0.0146
     28 C         141.0618  141.1750  171.4059 C.3     1  UNL1        0.0772
     29 S         140.2757  140.2027  170.5772 S.3     1  UNL1       -0.0766
@<TRIPOS>BOND
     1    28    29    1
     2    29     1    1
     3     1     2   ar
     4     2     3   ar
     5     3     7    1
     6     7     8   ar
     7     8     9   ar
     8     9    10   ar
     9    10    11    1
    10    10    12   ar
    11    12    13   ar
    12     3     4   ar
    13     4    14    1
    14    14    15   ar
    15    15    16   ar
    16    16    17   ar
    17    17    18   ar
    18    18    20    1
    19    20    22    1
    20    22    23   ar
    21    23    24   ar
    22    24    25   ar
    23    25    26   ar
    24    26    27   ar
    25    18    19   ar
    26     4     5   ar
    27     5     1   ar
    28    13     7   ar
    29    19    14   ar
    30    27    22   ar
    31    20    21    1
    32     5     6    1
@<TRIPOS>MOLECULE
*****
 29 32 0 0 0
SMALL
GASTEIGER

@<TRIPOS>ATOM
      1 C         138.5354  141.7656  158.9344 C.ar    1  UNL1        0.1680
      2 N         138.4170  142.8791  159.9323 N.ar    1  UNL1       -0.2213
      3 C         138.7634  142.3289  161.2841 C.ar    1  UNL1        0.0989
      4 C         139.0958  140.8753  161.1216 C.ar    1  UNL1        0.0760
      5 N         138.9549  140.5271  159.6694 N.ar    1  UNL1       -0.3324
      6 H         139.1105  139.6413  159.2690 H       1  UNL1        0.1679
      7 C         138.7752  143.0975  162.5723 C.ar    1  UNL1        0.0193
      8 C         137.5218  143.2131  163.3882 C.ar    1  UNL1        0.0038
      9 C         137.5337  143.9816  164.6762 C.ar    1  UNL1        0.0297
     10 C         138.7989  144.6345  165.1484 C.ar    1  UNL1        0.1401
     11 F         138.8107  145.4031  166.4366 F       1  UNL1       -0.2042
     12 C         140.0522  144.5190  164.3325 C.ar    1  UNL1        0.0297
     13 C         140.0404  143.7504  163.0444 C.ar    1  UNL1        0.0038
     14 C         139.4985  139.9350  162.2187 C.ar    1  UNL1        0.0214
     15 C         138.5046  138.9558  162.7696 C.ar    1  UNL1        0.0222
     16 C         138.9073  138.0154  163.8667 C.ar    1  UNL1        0.1004
     17 N         140.3038  138.0541  164.4129 N.ar    1  UNL1       -0.2291
     18 C         141.2976  139.0333  163.8619 C.ar    1  UNL1        0.1322
     19 C         140.8950  139.9736  162.7648 C.ar    1  UNL1        0.0359
     20 N         142.6941  139.0720  164.4080 N.pl3   1  UNL1       -0.2979
     21 H         143.1462  138.2356  164.6636 H       1  UNL1        0.1536
     22 C         143.4020  140.3852  164.5648 C.ar    1  UNL1        0.0494
     23 C         144.7064  140.6225  163.8631 C.ar    1  UNL1        0.0146
     24 C         145.4142  141.9357  164.0199 C.ar    1  UNL1        0.0013
     25 C         144.8177  143.0116  164.8783 C.ar    1  UNL1        0.0001
     26 C         143.5133  142.7742  165.5799 C.ar    1  UNL1        0.0013
     27 C         142.8054  141.4610  165.4232 C.ar    1  UNL1        0.0146
     28 C         137.0764  141.2078  156.8583 C.3     1  UNL1        0.0772
     29 S         138.2792  141.8718  157.4602 S.3     1  UNL1       -0.0766
@<TRIPOS>BOND
     1    28    29    1
     2    29     1    1
     3     1     2   ar
     4     2     3   ar
     5     3     7    1
     6     7     8   ar
     7     8     9   ar
     8     9    10   ar
     9    10    11    1
    10    10    12   ar
    11    12    13   ar
    12     3     4   ar
    13     4    14    1
    14    14    15   ar
    15    15    16   ar
    16    16    17   ar
    17    17    18   ar
    18    18    20    1
    19    20    22    1
    20    22    23   ar
    21    23    24   ar
    22    24    25   ar
    23    25    26   ar
    24    26    27   ar
    25    18    19   ar
    26     4     5   ar
    27     5     1   ar
    28    13     7   ar
    29    19    14   ar
    30    27    22   ar
    31    20    21    1
    32     5     6    1
@<TRIPOS>MOLECULE
*****
 29 32 0 0 0
SMALL
GASTEIGER

@<TRIPOS>ATOM
      1 C         140.2426  138.4860  159.4162 C.ar    1  UNL1        0.1680
      2 N         139.2686  138.3451  160.5482 N.ar    1  UNL1       -0.2213
      3 C         139.9588  138.7728  161.8095 C.ar    1  UNL1        0.0989
      4 C         141.3593  139.1780  161.4570 C.ar    1  UNL1        0.0760
      5 N         141.5347  139.0008  159.9778 N.ar    1  UNL1       -0.3324
      6 H         142.3541  139.1893  159.4656 H       1  UNL1        0.1679
      7 C         139.3544  138.7919  163.1823 C.ar    1  UNL1        0.0193
      8 C         139.3550  137.5472  164.0193 C.ar    1  UNL1        0.0038
      9 C         138.7506  137.5663  165.3920 C.ar    1  UNL1        0.0297
     10 C         138.1458  138.8302  165.9277 C.ar    1  UNL1        0.1401
     11 F         137.5415  138.8493  167.3005 F       1  UNL1       -0.2042
     12 C         138.1453  140.0748  165.0906 C.ar    1  UNL1        0.0297
     13 C         138.7496  140.0557  163.7179 C.ar    1  UNL1        0.0038
     14 C         142.4014  139.6736  162.4153 C.ar    1  UNL1        0.0214
     15 C         143.6321  138.8557  162.6737 C.ar    1  UNL1        0.0222
     16 C         144.6742  139.3512  163.6320 C.ar    1  UNL1        0.1004
     17 N         144.4858  140.6645  164.3319 N.ar    1  UNL1       -0.2291
     18 C         143.2553  141.4823  164.0734 C.ar    1  UNL1        0.1322
     19 C         142.2131  140.9868  163.1151 C.ar    1  UNL1        0.0359
     20 N         143.0668  142.7956  164.7732 N.pl3   1  UNL1       -0.2979
     21 H         143.8268  143.2237  165.2297 H       1  UNL1        0.1536
     22 C         141.7204  143.4568  164.7774 C.ar    1  UNL1        0.0494
     23 C         140.6994  143.0724  165.8070 C.ar    1  UNL1        0.0146
     24 C         139.3530  143.7336  165.8113 C.ar    1  UNL1        0.0013
     25 C         139.0275  144.7790  164.7861 C.ar    1  UNL1        0.0001
     26 C         140.0484  145.1634  163.7566 C.ar    1  UNL1        0.0013
     27 C         141.3950  144.5023  163.7522 C.ar    1  UNL1        0.0146
     28 C         141.1057  137.8108  157.0605 C.3     1  UNL1        0.0772
     29 S         139.9720  138.1679  157.9755 S.3     1  UNL1       -0.0766
@<TRIPOS>BOND
     1    28    29    1
     2    29     1    1
     3     1     2   ar
     4     2     3   ar
     5     3     7    1
     6     7     8   ar
     7     8     9   ar
     8     9    10   ar
     9    10    11    1
    10    10    12   ar
    11    12    13   ar
    12     3     4   ar
    13     4    14    1
    14    14    15   ar
    15    15    16   ar
    16    16    17   ar
    17    17    18   ar
    18    18    20    1
    19    20    22    1
    20    22    23   ar
    21    23    24   ar
    22    24    25   ar
    23    25    26   ar
    24    26    27   ar
    25    18    19   ar
    26     4     5   ar
    27     5     1   ar
    28    13     7   ar
    29    19    14   ar
    30    27    22   ar
    31    20    21    1
    32     5     6    1
@<TRIPOS>MOLECULE
*****
 29 32 0 0 0
SMALL
GASTEIGER

@<TRIPOS>ATOM
      1 C         138.4236  142.0078  159.1343 C.ar    1  UNL1        0.1680
      2 N         138.8812  140.6673  159.6278 N.ar    1  UNL1       -0.2213
      3 C         139.2007  140.7952  161.0879 C.ar    1  UNL1        0.0989
      4 C         138.9405  142.2148  161.4967 C.ar    1  UNL1        0.0760
      5 N         138.4603  142.9642  160.2893 N.ar    1  UNL1       -0.3324
      6 H         138.2126  143.9166  160.2601 H       1  UNL1        0.1679
      7 C         139.6937  139.6964  161.9821 C.ar    1  UNL1        0.0193
      8 C         138.7909  139.1235  163.0340 C.ar    1  UNL1        0.0038
      9 C         139.2840  138.0247  163.9282 C.ar    1  UNL1        0.0297
     10 C         140.6799  137.4988  163.7704 C.ar    1  UNL1        0.1401
     11 F         141.1730  136.4000  164.6646 F       1  UNL1       -0.2042
     12 C         141.5827  138.0717  162.7184 C.ar    1  UNL1        0.0297
     13 C         141.0897  139.1705  161.8243 C.ar    1  UNL1        0.0038
     14 C         139.1277  142.7848  162.8714 C.ar    1  UNL1        0.0214
     15 C         138.0498  143.6269  163.4873 C.ar    1  UNL1        0.0222
     16 C         138.2370  144.1970  164.8620 C.ar    1  UNL1        0.1004
     17 N         139.5020  143.9250  165.6210 N.ar    1  UNL1       -0.2291
     18 C         140.5798  143.0830  165.0051 C.ar    1  UNL1        0.1322
     19 C         140.3926  142.5129  163.6304 C.ar    1  UNL1        0.0359
     20 N         141.8447  142.8110  165.7640 N.pl3   1  UNL1       -0.2979
     21 H         142.2535  143.5209  166.3101 H       1  UNL1        0.1536
     22 C         142.4870  141.4574  165.6908 C.ar    1  UNL1        0.0494
     23 C         143.6276  141.2186  164.7463 C.ar    1  UNL1        0.0146
     24 C         144.2698  139.8650  164.6731 C.ar    1  UNL1        0.0013
     25 C         143.7715  138.7503  165.5444 C.ar    1  UNL1        0.0001
     26 C         142.6309  138.9891  166.4888 C.ar    1  UNL1        0.0013
     27 C         141.9886  140.3427  166.5621 C.ar    1  UNL1        0.0146
     28 C         137.1229  141.3866  156.9728 C.3     1  UNL1        0.0772
     29 S         138.0032  142.3346  157.7320 S.3     1  UNL1       -0.0766
@<TRIPOS>BOND
     1    28    29    1
     2    29     1    1
     3     1     2   ar
     4     2     3   ar
     5     3     7    1
     6     7     8   ar
     7     8     9   ar
     8     9    10   ar
     9    10    11    1
    10    10    12   ar
    11    12    13   ar
    12     3     4   ar
    13     4    14    1
    14    14    15   ar
    15    15    16   ar
    16    16    17   ar
    17    17    18   ar
    18    18    20    1
    19    20    22    1
    20    22    23   ar
    21    23    24   ar
    22    24    25   ar
    23    25    26   ar
    24    26    27   ar
    25    18    19   ar
    26     4     5   ar
    27     5     1   ar
    28    13     7   ar
    29    19    14   ar
    30    27    22   ar
    31    20    21    1
    32     5     6    1
@<TRIPOS>MOLECULE
*****
 29 32 0 0 0
SMALL
GASTEIGER

@<TRIPOS>ATOM
      1 C         141.6541  140.7943  169.0638 C.ar    1  UNL1        0.1680
      2 N         142.1438  139.8468  168.0091 N.ar    1  UNL1       -0.2213
      3 C         141.4626  140.1966  166.7192 C.ar    1  UNL1        0.0989
      4 C         140.5518  141.3603  166.9768 C.ar    1  UNL1        0.0760
      5 N         140.6702  141.7297  168.4258 N.ar    1  UNL1       -0.3324
      6 H         140.1869  142.4581  168.8785 H       1  UNL1        0.1679
      7 C         141.6579  139.5042  165.4029 C.ar    1  UNL1        0.0193
      8 C         141.0639  138.1459  165.1746 C.ar    1  UNL1        0.0038
      9 C         141.2593  137.4536  163.8584 C.ar    1  UNL1        0.0297
     10 C         142.0485  138.1196  162.7705 C.ar    1  UNL1        0.1401
     11 F         142.2438  137.4272  161.4542 F       1  UNL1       -0.2042
     12 C         142.6424  139.4779  162.9988 C.ar    1  UNL1        0.0297
     13 C         142.4471  140.1702  164.3150 C.ar    1  UNL1        0.0038
     14 C         139.6764  142.0359  165.9633 C.ar    1  UNL1        0.0214
     15 C         139.6344  143.5335  165.8881 C.ar    1  UNL1        0.0222
     16 C         138.7590  144.2092  164.8746 C.ar    1  UNL1        0.1004
     17 N         137.9256  143.3874  163.9364 N.ar    1  UNL1       -0.2291
     18 C         137.9676  141.8899  164.0117 C.ar    1  UNL1        0.1322
     19 C         138.8431  141.2142  165.0252 C.ar    1  UNL1        0.0359
     20 N         137.1343  141.0681  163.0736 N.pl3   1  UNL1       -0.2979
     21 H         136.1551  141.0480  163.1739 H       1  UNL1        0.1536
     22 C         137.7928  140.2768  161.9826 C.ar    1  UNL1        0.0494
     23 C         138.1791  138.8472  162.2216 C.ar    1  UNL1        0.0146
     24 C         138.8376  138.0559  161.1306 C.ar    1  UNL1        0.0013
     25 C         139.1099  138.6941  159.8007 C.ar    1  UNL1        0.0001
     26 C         138.7236  140.1237  159.5618 C.ar    1  UNL1        0.0013
     27 C         138.0650  140.9151  160.6528 C.ar    1  UNL1        0.0146
     28 C         141.8978  142.0455  171.3276 C.3     1  UNL1        0.0772
     29 S         142.0744  140.8046  170.5036 S.3     1  UNL1       -0.0766
@<TRIPOS>BOND
     1    28    29    1
     2    29     1    1
     3     1     2   ar
     4     2     3   ar
     5     3     7    1
     6     7     8   ar
     7     8     9   ar
     8     9    10   ar
     9    10    11    1
    10    10    12   ar
    11    12    13   ar
    12     3     4   ar
    13     4    14    1
    14    14    15   ar
    15    15    16   ar
    16    16    17   ar
    17    17    18   ar
    18    18    20    1
    19    20    22    1
    20    22    23   ar
    21    23    24   ar
    22    24    25   ar
    23    25    26   ar
    24    26    27   ar
    25    18    19   ar
    26     4     5   ar
    27     5     1   ar
    28    13     7   ar
    29    19    14   ar
    30    27    22   ar
    31    20    21    1
    32     5     6    1
@<TRIPOS>MOLECULE
*****
 29 32 0 0 0
SMALL
GASTEIGER

@<TRIPOS>ATOM
      1 C         142.3237  138.3517  158.8418 C.ar    1  UNL1        0.1680
      2 N         143.0103  138.0037  160.1293 N.ar    1  UNL1       -0.2213
      3 C         142.2855  138.6986  161.2437 C.ar    1  UNL1        0.0989
      4 C         141.1509  139.4759  160.6450 C.ar    1  UNL1        0.0760
      5 N         141.1746  139.2616  159.1606 N.ar    1  UNL1       -0.3324
      6 H         140.5462  139.6499  158.5098 H       1  UNL1        0.1679
      7 C         142.6340  138.6283  162.7010 C.ar    1  UNL1        0.0193
      8 C         141.7165  137.9276  163.6587 C.ar    1  UNL1        0.0038
      9 C         142.0651  137.8574  165.1159 C.ar    1  UNL1        0.0297
     10 C         143.3312  138.4878  165.6154 C.ar    1  UNL1        0.1401
     11 F         143.6798  138.4176  167.0727 F       1  UNL1       -0.2042
     12 C         144.2487  139.1885  164.6577 C.ar    1  UNL1        0.0297
     13 C         143.9001  139.2587  163.2005 C.ar    1  UNL1        0.0038
     14 C         140.1657  140.3196  161.3984 C.ar    1  UNL1        0.0214
     15 C         138.6979  140.0263  161.3003 C.ar    1  UNL1        0.0222
     16 C         137.7126  140.8700  162.0537 C.ar    1  UNL1        0.1004
     17 N         138.1951  142.0068  162.9051 N.ar    1  UNL1       -0.2291
     18 C         139.6629  142.3000  163.0031 C.ar    1  UNL1        0.1322
     19 C         140.6482  141.4563  162.2497 C.ar    1  UNL1        0.0359
     20 N         140.1455  143.4368  163.8545 N.pl3   1  UNL1       -0.2979
     21 H         139.5317  144.1690  164.0920 H       1  UNL1        0.1536
     22 C         141.5632  143.4580  164.3440 C.ar    1  UNL1        0.0494
     23 C         142.0112  142.4775  165.3871 C.ar    1  UNL1        0.0146
     24 C         143.4289  142.4987  165.8766 C.ar    1  UNL1        0.0013
     25 C         144.3987  143.5003  165.3230 C.ar    1  UNL1        0.0001
     26 C         143.9507  144.4808  164.2799 C.ar    1  UNL1        0.0013
     27 C         142.5329  144.4596  163.7904 C.ar    1  UNL1        0.0146
     28 C         142.7505  136.4043  157.1758 C.3     1  UNL1        0.0772
     29 S         142.7172  137.8737  157.4756 S.3     1  UNL1       -0.0766
@<TRIPOS>BOND
     1    28    29    1
     2    29     1    1
     3     1     2   ar
     4     2     3   ar
     5     3     7    1
     6     7     8   ar
     7     8     9   ar
     8     9    10   ar
     9    10    11    1
    10    10    12   ar
    11    12    13   ar
    12     3     4   ar
    13     4    14    1
    14    14    15   ar
    15    15    16   ar
    16    16    17   ar
    17    17    18   ar
    18    18    20    1
    19    20    22    1
    20    22    23   ar
    21    23    24   ar
    22    24    25   ar
    23    25    26   ar
    24    26    27   ar
    25    18    19   ar
    26     4     5   ar
    27     5     1   ar
    28    13     7   ar
    29    19    14   ar
    30    27    22   ar
    31    20    21    1
    32     5     6    1
