@<TRIPOS>MOLECULE
*****
 37 40 0 0 0
SMALL
GASTEIGER

@<TRIPOS>ATOM
      1 C         143.0528  143.4270  161.8263 C.ar    1  UNL1        0.0008
      2 C         144.0849  144.1398  162.6488 C.ar    1  UNL1       -0.0024
      3 C         143.6654  145.1966  163.6271 C.ar    1  UNL1        0.0028
      4 C         142.2137  145.5407  163.7829 C.ar    1  UNL1        0.0369
      5 C         141.1815  144.8278  162.9603 C.ar    1  UNL1        0.1389
      6 C         141.6011  143.7710  161.9820 C.ar    1  UNL1        0.0343
      7 C         143.4724  142.3701  160.8480 C.3     1  UNL1        0.1239
      8 C         142.0185  140.2170  160.8314 C.2     1  UNL1        0.4100
      9 O         140.9202  140.9640  160.1345 O.2     1  UNL1       -0.2258
     10 N         143.2946  140.9201  161.1882 N.am    1  UNL1       -0.2363
     11 O         141.8407  138.7670  161.1717 O.3     1  UNL1       -0.4101
     12 C         138.3964  137.1768  165.8201 C.3     1  UNL1        0.0310
     13 C         139.2574  137.5743  164.6580 C.ar    1  UNL1       -0.0217
     14 C         140.7376  137.7342  164.8413 C.ar    1  UNL1       -0.0011
     15 C         141.5987  138.1317  163.6793 C.ar    1  UNL1        0.0373
     16 C         140.9796  138.3694  162.3337 C.ar    1  UNL1        0.1500
     17 C         139.4995  138.2096  162.1504 C.ar    1  UNL1        0.0373
     18 C         138.6384  137.8120  163.3126 C.ar    1  UNL1       -0.0011
     19 C         144.3929  140.1732  161.8852 C.3     1  UNL1        0.1388
     20 C         144.9286  140.6752  163.1932 C.2     1  UNL1        0.0706
     21 O         146.1452  141.5523  163.2184 O.co2   1  UNL1       -0.5474
     22 O         144.2477  140.3002  164.4761 O.co2   1  UNL1       -0.5474
     23 O         139.7299  145.1718  163.1161 O.3     1  UNL1       -0.4689
     24 C         138.9577  144.6514  164.2920 C.3     1  UNL1        0.2537
     25 C         139.3744  143.3727  164.9564 C.ar    1  UNL1        0.1359
     26 N         140.0225  143.2495  166.3036 N.ar    1  UNL1       -0.2093
     27 C         140.2648  141.7934  166.5700 C.ar    1  UNL1        0.2299
     28 O         139.7665  141.0166  165.3875 O.2     1  UNL1       -0.4391
     29 C         139.2162  141.9927  164.3902 C.ar    1  UNL1        0.1421
     30 C         138.6135  141.6490  163.0603 C.3     1  UNL1        0.0740
     31 C         140.8948  141.2156  167.8025 C.ar    1  UNL1        0.0641
     32 C         140.0757  140.3825  168.7433 C.ar    1  UNL1        0.0055
     33 C         140.7057  139.8046  169.9759 C.ar    1  UNL1        0.0002
     34 C         142.1548  140.0598  170.2676 C.ar    1  UNL1        0.0009
     35 C         142.9738  140.8929  169.3268 C.ar    1  UNL1        0.0115
     36 C         142.3438  141.4708  168.0942 C.ar    1  UNL1        0.0621
     37 CL        143.1629  142.3038  167.1535 Cl      1  UNL1       -0.0821
@<TRIPOS>UNITY_ATOM_ATTR
21 1
charge -1
@<TRIPOS>BOND
     1    12    13    1
     2    13    14   ar
     3    14    15   ar
     4    15    16   ar
     5    16    11    1
     6    11     8    1
     7     8     9    2
     8     8    10   am
     9    10    19    1
    10    19    20    1
    11    20    21   ar
    12    20    22   ar
    13    10     7    1
    14     7     1    1
    15     1     2   ar
    16     2     3   ar
    17     3     4   ar
    18     4     5   ar
    19     5    23    1
    20    23    24    1
    21    24    25    1
    22    25    26   ar
    23    26    27   ar
    24    27    31    1
    25    31    32   ar
    26    32    33   ar
    27    33    34   ar
    28    34    35   ar
    29    35    36   ar
    30    36    37    1
    31    27    28   ar
    32    28    29   ar
    33    29    30    1
    34     5     6   ar
    35    16    17   ar
    36    17    18   ar
    37    18    13   ar
    38     6     1   ar
    39    29    25   ar
    40    36    31   ar
@<TRIPOS>MOLECULE
*****
 37 40 0 0 0
SMALL
GASTEIGER

@<TRIPOS>ATOM
      1 C         143.4120  143.4510  161.8320 C.ar    1  UNL1        0.0008
      2 C         144.2167  144.2637  162.8024 C.ar    1  UNL1       -0.0024
      3 C         143.5474  145.3174  163.6343 C.ar    1  UNL1        0.0028
      4 C         142.0734  145.5582  163.4957 C.ar    1  UNL1        0.0369
      5 C         141.2686  144.7454  162.5252 C.ar    1  UNL1        0.1389
      6 C         141.9379  143.6918  161.6934 C.ar    1  UNL1        0.0343
      7 C         144.0813  142.3974  161.0002 C.3     1  UNL1        0.1239
      8 C         144.2338  140.1463  162.2885 C.2     1  UNL1        0.4100
      9 O         145.1766  140.7733  163.2724 O.2     1  UNL1       -0.2258
     10 N         143.6861  140.9584  161.1524 N.am    1  UNL1       -0.2363
     11 O         143.8386  138.7074  162.4407 O.3     1  UNL1       -0.4101
     12 C         138.7583  137.2774  165.2947 C.3     1  UNL1        0.0310
     13 C         140.0284  137.6349  164.5812 C.ar    1  UNL1       -0.0217
     14 C         141.1614  138.2639  165.3365 C.ar    1  UNL1       -0.0011
     15 C         142.4315  138.6214  164.6231 C.ar    1  UNL1        0.0373
     16 C         142.5685  138.3499  163.1542 C.ar    1  UNL1        0.1500
     17 C         141.4354  137.7209  162.3988 C.ar    1  UNL1        0.0373
     18 C         140.1653  137.3634  163.1124 C.ar    1  UNL1       -0.0011
     19 C         142.7433  140.3315  160.1685 C.3     1  UNL1        0.1388
     20 C         143.2661  139.3911  159.1233 C.2     1  UNL1        0.0706
     21 O         142.7154  137.9994  159.0236 O.co2   1  UNL1       -0.5474
     22 O         144.3396  139.8424  158.1779 O.co2   1  UNL1       -0.5474
     23 O         139.7946  144.9862  162.3866 O.3     1  UNL1       -0.4689
     24 C         138.8199  144.1146  163.1217 C.3     1  UNL1        0.2537
     25 C         139.2838  143.2814  164.2794 C.ar    1  UNL1        0.1359
     26 N         140.1144  143.7599  165.4333 N.ar    1  UNL1       -0.2093
     27 C         140.3425  142.5976  166.3537 C.ar    1  UNL1        0.2299
     28 O         139.6530  141.4007  165.7687 O.2     1  UNL1       -0.4391
     29 C         138.9987  141.8234  164.4867 C.ar    1  UNL1        0.1421
     30 C         138.1996  140.9426  163.5725 C.3     1  UNL1        0.0740
     31 C         141.1231  142.6270  167.6341 C.ar    1  UNL1        0.0641
     32 C         140.4625  143.0721  168.9052 C.ar    1  UNL1        0.0055
     33 C         141.2431  143.1016  170.1858 C.ar    1  UNL1        0.0002
     34 C         142.6843  142.6858  170.1953 C.ar    1  UNL1        0.0009
     35 C         143.3449  142.2407  168.9242 C.ar    1  UNL1        0.0115
     36 C         142.5643  142.2113  167.6437 C.ar    1  UNL1        0.0621
     37 CL        143.2249  141.7661  166.3728 Cl      1  UNL1       -0.0821
@<TRIPOS>UNITY_ATOM_ATTR
21 1
charge -1
@<TRIPOS>BOND
     1    12    13    1
     2    13    14   ar
     3    14    15   ar
     4    15    16   ar
     5    16    11    1
     6    11     8    1
     7     8     9    2
     8     8    10   am
     9    10    19    1
    10    19    20    1
    11    20    21   ar
    12    20    22   ar
    13    10     7    1
    14     7     1    1
    15     1     2   ar
    16     2     3   ar
    17     3     4   ar
    18     4     5   ar
    19     5    23    1
    20    23    24    1
    21    24    25    1
    22    25    26   ar
    23    26    27   ar
    24    27    31    1
    25    31    32   ar
    26    32    33   ar
    27    33    34   ar
    28    34    35   ar
    29    35    36   ar
    30    36    37    1
    31    27    28   ar
    32    28    29   ar
    33    29    30    1
    34     5     6   ar
    35    16    17   ar
    36    17    18   ar
    37    18    13   ar
    38     6     1   ar
    39    29    25   ar
    40    36    31   ar
@<TRIPOS>MOLECULE
*****
 37 40 0 0 0
SMALL
GASTEIGER

@<TRIPOS>ATOM
      1 C         140.3693  143.7807  160.9696 C.ar    1  UNL1        0.0008
      2 C         140.3012  145.1794  161.5072 C.ar    1  UNL1       -0.0024
      3 C         139.1982  145.5692  162.4460 C.ar    1  UNL1        0.0028
      4 C         138.1632  144.5604  162.8472 C.ar    1  UNL1        0.0369
      5 C         138.2312  143.1616  162.3096 C.ar    1  UNL1        0.1389
      6 C         139.3342  142.7718  161.3708 C.ar    1  UNL1        0.0343
      7 C         141.4723  143.3909  160.0308 C.3     1  UNL1        0.1239
      8 C         142.4888  141.0204  160.3434 C.2     1  UNL1        0.4100
      9 O         141.2761  140.4156  159.7003 O.2     1  UNL1       -0.2258
     10 N         142.5869  142.5081  160.5086 N.am    1  UNL1       -0.2363
     11 O         143.6034  140.1376  160.8212 O.3     1  UNL1       -0.4101
     12 C         143.6878  138.2247  166.5074 C.3     1  UNL1        0.0310
     13 C         143.6667  138.7029  165.0859 C.ar    1  UNL1       -0.0217
     14 C         144.7615  139.5936  164.5779 C.ar    1  UNL1       -0.0011
     15 C         144.7404  140.0718  163.1563 C.ar    1  UNL1        0.0373
     16 C         143.6244  139.6594  162.2427 C.ar    1  UNL1        0.1500
     17 C         142.5296  138.7687  162.7507 C.ar    1  UNL1        0.0373
     18 C         142.5508  138.2905  164.1723 C.ar    1  UNL1       -0.0011
     19 C         143.7996  143.1129  161.1517 C.3     1  UNL1        0.1388
     20 C         143.6909  143.7533  162.5037 C.2     1  UNL1        0.0706
     21 O         144.2447  145.1292  162.7286 O.co2   1  UNL1       -0.5474
     22 O         143.0284  143.0181  163.6308 O.co2   1  UNL1       -0.5474
     23 O         137.1962  142.1528  162.7108 O.3     1  UNL1       -0.4689
     24 C         137.5605  140.7006  162.8031 C.3     1  UNL1        0.2537
     25 C         138.3026  140.1882  164.0017 C.ar    1  UNL1        0.1359
     26 N         138.6065  140.9645  165.2488 N.ar    1  UNL1       -0.2093
     27 C         139.3628  140.0657  166.1815 C.ar    1  UNL1        0.2299
     28 O         139.5265  138.7339  165.5110 O.2     1  UNL1       -0.4391
     29 C         138.8712  138.8097  164.1637 C.ar    1  UNL1        0.1421
     30 C         138.7975  137.7014  163.1556 C.3     1  UNL1        0.0740
     31 C         139.8670  140.4340  167.5453 C.ar    1  UNL1        0.0641
     32 C         139.0837  140.0466  168.7644 C.ar    1  UNL1        0.0055
     33 C         139.5878  140.4148  170.1284 C.ar    1  UNL1        0.0002
     34 C         140.8755  141.1706  170.2731 C.ar    1  UNL1        0.0009
     35 C         141.6588  141.5580  169.0540 C.ar    1  UNL1        0.0115
     36 C         141.1546  141.1897  167.6901 C.ar    1  UNL1        0.0621
     37 CL        141.9380  141.5772  166.4711 Cl      1  UNL1       -0.0821
@<TRIPOS>UNITY_ATOM_ATTR
21 1
charge -1
@<TRIPOS>BOND
     1    12    13    1
     2    13    14   ar
     3    14    15   ar
     4    15    16   ar
     5    16    11    1
     6    11     8    1
     7     8     9    2
     8     8    10   am
     9    10    19    1
    10    19    20    1
    11    20    21   ar
    12    20    22   ar
    13    10     7    1
    14     7     1    1
    15     1     2   ar
    16     2     3   ar
    17     3     4   ar
    18     4     5   ar
    19     5    23    1
    20    23    24    1
    21    24    25    1
    22    25    26   ar
    23    26    27   ar
    24    27    31    1
    25    31    32   ar
    26    32    33   ar
    27    33    34   ar
    28    34    35   ar
    29    35    36   ar
    30    36    37    1
    31    27    28   ar
    32    28    29   ar
    33    29    30    1
    34     5     6   ar
    35    16    17   ar
    36    17    18   ar
    37    18    13   ar
    38     6     1   ar
    39    29    25   ar
    40    36    31   ar
@<TRIPOS>MOLECULE
*****
 37 40 0 0 0
SMALL
GASTEIGER

@<TRIPOS>ATOM
      1 C         141.2154  144.4101  161.5448 C.ar    1  UNL1        0.0008
      2 C         140.9301  145.3517  162.6770 C.ar    1  UNL1       -0.0024
      3 C         141.9942  145.6487  163.6917 C.ar    1  UNL1        0.0028
      4 C         143.3435  145.0042  163.5741 C.ar    1  UNL1        0.0369
      5 C         143.6289  144.0626  162.4418 C.ar    1  UNL1        0.1389
      6 C         142.5648  143.7655  161.4271 C.ar    1  UNL1        0.0343
      7 C         140.1513  144.1130  160.5301 C.3     1  UNL1        0.1239
      8 C         138.1820  142.7415  161.5255 C.2     1  UNL1        0.4100
      9 O         137.7751  143.9254  162.3518 O.2     1  UNL1       -0.2258
     10 N         139.3702  142.8353  160.6147 N.am    1  UNL1       -0.2363
     11 O         137.4009  141.4638  161.6100 O.3     1  UNL1       -0.4101
     12 C         139.0711  137.1757  165.4600 C.3     1  UNL1        0.0310
     13 C         138.6535  138.2477  164.4976 C.ar    1  UNL1       -0.0217
     14 C         138.3720  139.6344  164.9953 C.ar    1  UNL1       -0.0011
     15 C         137.9545  140.7064  164.0329 C.ar    1  UNL1        0.0373
     16 C         137.8184  140.3918  162.5725 C.ar    1  UNL1        0.1500
     17 C         138.0999  139.0051  162.0747 C.ar    1  UNL1        0.0373
     18 C         138.5175  137.9330  163.0373 C.ar    1  UNL1       -0.0011
     19 C         139.7771  141.6514  159.7884 C.3     1  UNL1        0.1388
     20 C         140.8381  140.7166  160.2887 C.2     1  UNL1        0.0706
     21 O         141.5660  139.8246  159.3272 O.co2   1  UNL1       -0.5474
     22 O         141.1714  140.6739  161.7506 O.co2   1  UNL1       -0.5474
     23 O         144.9782  143.4181  162.3242 O.3     1  UNL1       -0.4689
     24 C         145.2663  142.1418  163.0578 C.3     1  UNL1        0.2537
     25 C         144.3944  141.7224  164.2040 C.ar    1  UNL1        0.1359
     26 N         144.0023  142.5775  165.3725 N.ar    1  UNL1       -0.2093
     27 C         143.1271  141.7579  166.2737 C.ar    1  UNL1        0.2299
     28 O         142.9783  140.3962  165.6624 O.2     1  UNL1       -0.4391
     29 C         143.7615  140.3743  164.3832 C.ar    1  UNL1        0.1421
     30 C         143.8894  139.2089  163.4476 C.3     1  UNL1        0.0740
     31 C         142.5092  142.2190  167.5604 C.ar    1  UNL1        0.0641
     32 C         143.3391  142.2895  168.8079 C.ar    1  UNL1        0.0055
     33 C         142.7213  142.7506  170.0947 C.ar    1  UNL1        0.0002
     34 C         141.2735  143.1411  170.1338 C.ar    1  UNL1        0.0009
     35 C         140.4436  143.0705  168.8863 C.ar    1  UNL1        0.0115
     36 C         141.0615  142.6095  167.5996 C.ar    1  UNL1        0.0621
     37 CL        140.2316  142.5389  166.3521 Cl      1  UNL1       -0.0821
@<TRIPOS>UNITY_ATOM_ATTR
21 1
charge -1
@<TRIPOS>BOND
     1    12    13    1
     2    13    14   ar
     3    14    15   ar
     4    15    16   ar
     5    16    11    1
     6    11     8    1
     7     8     9    2
     8     8    10   am
     9    10    19    1
    10    19    20    1
    11    20    21   ar
    12    20    22   ar
    13    10     7    1
    14     7     1    1
    15     1     2   ar
    16     2     3   ar
    17     3     4   ar
    18     4     5   ar
    19     5    23    1
    20    23    24    1
    21    24    25    1
    22    25    26   ar
    23    26    27   ar
    24    27    31    1
    25    31    32   ar
    26    32    33   ar
    27    33    34   ar
    28    34    35   ar
    29    35    36   ar
    30    36    37    1
    31    27    28   ar
    32    28    29   ar
    33    29    30    1
    34     5     6   ar
    35    16    17   ar
    36    17    18   ar
    37    18    13   ar
    38     6     1   ar
    39    29    25   ar
    40    36    31   ar
@<TRIPOS>MOLECULE
*****
 37 40 0 0 0
SMALL
GASTEIGER

@<TRIPOS>ATOM
      1 C         140.2670  142.4898  158.7719 C.ar    1  UNL1        0.0008
      2 C         141.5867  142.9281  158.2096 C.ar    1  UNL1       -0.0024
      3 C         142.1858  144.2360  158.6344 C.ar    1  UNL1        0.0028
      4 C         141.4652  145.1057  159.6215 C.ar    1  UNL1        0.0369
      5 C         140.1454  144.6674  160.1839 C.ar    1  UNL1        0.1389
      6 C         139.5463  143.3595  159.7591 C.ar    1  UNL1        0.0343
      7 C         139.6678  141.1819  158.3472 C.3     1  UNL1        0.1239
      8 C         140.6921  139.3080  159.8269 C.2     1  UNL1        0.4100
      9 O         142.0587  139.6463  159.3093 O.2     1  UNL1       -0.2258
     10 N         139.4966  140.0759  159.3458 N.am    1  UNL1       -0.2363
     11 O         140.5209  138.2020  160.8255 O.3     1  UNL1       -0.4101
     12 C         142.6766  138.8243  166.3901 C.3     1  UNL1        0.0310
     13 C         142.1377  138.6688  164.9990 C.ar    1  UNL1       -0.0217
     14 C         142.4211  139.7162  163.9634 C.ar    1  UNL1       -0.0011
     15 C         141.8822  139.5606  162.5722 C.ar    1  UNL1        0.0373
     16 C         141.0598  138.3576  162.2166 C.ar    1  UNL1        0.1500
     17 C         140.7764  137.3101  163.2523 C.ar    1  UNL1        0.0373
     18 C         141.3153  137.4657  164.6435 C.ar    1  UNL1       -0.0011
     19 C         138.1300  139.7376  159.8634 C.3     1  UNL1        0.1388
     20 C         137.7722  140.0382  161.2887 C.2     1  UNL1        0.0706
     21 O         137.5375  141.4555  161.7202 O.co2   1  UNL1       -0.5474
     22 O         137.6492  138.9215  162.2827 O.co2   1  UNL1       -0.5474
     23 O         139.4249  145.5371  161.1710 O.3     1  UNL1       -0.4689
     24 C         140.0442  145.8291  162.5056 C.3     1  UNL1        0.2537
     25 C         140.4218  144.7016  163.4199 C.ar    1  UNL1        0.1359
     26 N         139.4824  143.6906  164.0077 N.ar    1  UNL1       -0.2093
     27 C         140.2851  142.7513  164.8581 C.ar    1  UNL1        0.2299
     28 O         141.7207  143.1817  164.7961 O.2     1  UNL1       -0.4391
     29 C         141.8052  144.3871  163.9072 C.ar    1  UNL1        0.1421
     30 C         143.0538  145.1448  163.5656 C.3     1  UNL1        0.0740
     31 C         139.7468  141.5861  165.6344 C.ar    1  UNL1        0.0641
     32 C         138.8342  140.5990  164.9690 C.ar    1  UNL1        0.0055
     33 C         138.2958  139.4338  165.7452 C.ar    1  UNL1        0.0002
     34 C         138.6701  139.2558  167.1869 C.ar    1  UNL1        0.0009
     35 C         139.5827  140.2429  167.8522 C.ar    1  UNL1        0.0115
     36 C         140.1211  141.4081  167.0759 C.ar    1  UNL1        0.0621
     37 CL        141.0336  142.3952  167.7413 Cl      1  UNL1       -0.0821
@<TRIPOS>UNITY_ATOM_ATTR
21 1
charge -1
@<TRIPOS>BOND
     1    12    13    1
     2    13    14   ar
     3    14    15   ar
     4    15    16   ar
     5    16    11    1
     6    11     8    1
     7     8     9    2
     8     8    10   am
     9    10    19    1
    10    19    20    1
    11    20    21   ar
    12    20    22   ar
    13    10     7    1
    14     7     1    1
    15     1     2   ar
    16     2     3   ar
    17     3     4   ar
    18     4     5   ar
    19     5    23    1
    20    23    24    1
    21    24    25    1
    22    25    26   ar
    23    26    27   ar
    24    27    31    1
    25    31    32   ar
    26    32    33   ar
    27    33    34   ar
    28    34    35   ar
    29    35    36   ar
    30    36    37    1
    31    27    28   ar
    32    28    29   ar
    33    29    30    1
    34     5     6   ar
    35    16    17   ar
    36    17    18   ar
    37    18    13   ar
    38     6     1   ar
    39    29    25   ar
    40    36    31   ar
@<TRIPOS>MOLECULE
*****
 37 40 0 0 0
SMALL
GASTEIGER

@<TRIPOS>ATOM
      1 C         140.3154  142.5205  158.6633 C.ar    1  UNL1        0.0008
      2 C         141.3365  143.1563  157.7672 C.ar    1  UNL1       -0.0024
      3 C         141.7581  144.5768  158.0001 C.ar    1  UNL1        0.0028
      4 C         141.1587  145.3616  159.1292 C.ar    1  UNL1        0.0369
      5 C         140.1375  144.7258  160.0254 C.ar    1  UNL1        0.1389
      6 C         139.7159  143.3052  159.7924 C.ar    1  UNL1        0.0343
      7 C         139.8938  141.0999  158.4304 C.3     1  UNL1        0.1239
      8 C         140.0711  139.3411  160.3344 C.2     1  UNL1        0.4100
      9 O         138.7694  139.8244  160.9020 O.2     1  UNL1       -0.2258
     10 N         140.6333  139.9789  159.0986 N.am    1  UNL1       -0.2363
     11 O         140.8105  138.2201  161.0026 O.3     1  UNL1       -0.4101
     12 C         142.8672  138.8982  166.5981 C.3     1  UNL1        0.0310
     13 C         142.3531  138.7287  165.1993 C.ar    1  UNL1       -0.0217
     14 C         142.6675  139.7583  164.1547 C.ar    1  UNL1       -0.0011
     15 C         142.1534  139.5888  162.7558 C.ar    1  UNL1        0.0373
     16 C         141.3247  138.3896  162.4015 C.ar    1  UNL1        0.1500
     17 C         141.0102  137.3601  163.4461 C.ar    1  UNL1        0.0373
     18 C         141.5244  137.5297  164.8450 C.ar    1  UNL1       -0.0011
     19 C         141.9349  139.4957  158.5310 C.3     1  UNL1        0.1388
     20 C         143.2245  139.8335  159.2187 C.2     1  UNL1        0.0706
     21 O         144.0145  138.7569  159.9020 O.co2   1  UNL1       -0.5474
     22 O         143.7240  141.2478  159.2232 O.co2   1  UNL1       -0.5474
     23 O         139.5381  145.5105  161.1544 O.3     1  UNL1       -0.4689
     24 C         140.3346  145.7592  162.4009 C.3     1  UNL1        0.2537
     25 C         140.6377  144.6262  163.3358 C.ar    1  UNL1        0.1359
     26 N         139.6575  143.6028  163.8279 N.ar    1  UNL1       -0.2093
     27 C         140.3881  142.6616  164.7392 C.ar    1  UNL1        0.2299
     28 O         141.8199  143.1032  164.8103 O.2     1  UNL1       -0.4391
     29 C         141.9741  144.3174  163.9430 C.ar    1  UNL1        0.1421
     30 C         143.2422  145.0875  163.7217 C.3     1  UNL1        0.0740
     31 C         139.7917  141.4854  165.4537 C.ar    1  UNL1        0.0641
     32 C         138.9534  140.4960  164.6999 C.ar    1  UNL1        0.0055
     33 C         138.3570  139.3197  165.4144 C.ar    1  UNL1        0.0002
     34 C         138.5989  139.1329  166.8830 C.ar    1  UNL1        0.0009
     35 C         139.4372  140.1223  167.6369 C.ar    1  UNL1        0.0115
     36 C         140.0336  141.2985  166.9223 C.ar    1  UNL1        0.0621
     37 CL        140.8718  142.2879  167.6762 Cl      1  UNL1       -0.0821
@<TRIPOS>UNITY_ATOM_ATTR
21 1
charge -1
@<TRIPOS>BOND
     1    12    13    1
     2    13    14   ar
     3    14    15   ar
     4    15    16   ar
     5    16    11    1
     6    11     8    1
     7     8     9    2
     8     8    10   am
     9    10    19    1
    10    19    20    1
    11    20    21   ar
    12    20    22   ar
    13    10     7    1
    14     7     1    1
    15     1     2   ar
    16     2     3   ar
    17     3     4   ar
    18     4     5   ar
    19     5    23    1
    20    23    24    1
    21    24    25    1
    22    25    26   ar
    23    26    27   ar
    24    27    31    1
    25    31    32   ar
    26    32    33   ar
    27    33    34   ar
    28    34    35   ar
    29    35    36   ar
    30    36    37    1
    31    27    28   ar
    32    28    29   ar
    33    29    30    1
    34     5     6   ar
    35    16    17   ar
    36    17    18   ar
    37    18    13   ar
    38     6     1   ar
    39    29    25   ar
    40    36    31   ar
@<TRIPOS>MOLECULE
*****
 37 40 0 0 0
SMALL
GASTEIGER

@<TRIPOS>ATOM
      1 C         140.4305  142.1871  158.6821 C.ar    1  UNL1        0.0008
      2 C         141.5727  142.8966  158.0174 C.ar    1  UNL1       -0.0024
      3 C         141.9385  144.2888  158.4394 C.ar    1  UNL1        0.0028
      4 C         141.1619  144.9715  159.5261 C.ar    1  UNL1        0.0369
      5 C         140.0196  144.2620  160.1908 C.ar    1  UNL1        0.1389
      6 C         139.6539  142.8698  159.7689 C.ar    1  UNL1        0.0343
      7 C         140.0648  140.7949  158.2601 C.3     1  UNL1        0.1239
      8 C         138.7631  139.2497  159.8936 C.2     1  UNL1        0.4100
      9 O         137.4802  139.9267  159.5116 O.2     1  UNL1       -0.2258
     10 N         140.0554  139.6839  159.2678 N.am    1  UNL1       -0.2363
     11 O         138.7537  138.1387  160.9012 O.3     1  UNL1       -0.4101
     12 C         138.6690  139.4075  166.7649 C.3     1  UNL1        0.0310
     13 C         138.6902  139.0903  165.2990 C.ar    1  UNL1       -0.0217
     14 C         139.1946  137.7588  164.8270 C.ar    1  UNL1       -0.0011
     15 C         139.2158  137.4416  163.3611 C.ar    1  UNL1        0.0373
     16 C         138.7325  138.4559  162.3671 C.ar    1  UNL1        0.1500
     17 C         138.2281  139.7873  162.8392 C.ar    1  UNL1        0.0373
     18 C         138.2070  140.1045  164.3052 C.ar    1  UNL1       -0.0011
     19 C         141.3383  139.0069  159.6498 C.3     1  UNL1        0.1388
     20 C         142.1166  139.4901  160.8375 C.2     1  UNL1        0.0706
     21 O         142.3107  138.5918  162.0230 O.co2   1  UNL1       -0.5474
     22 O         142.7008  140.8717  160.8398 O.co2   1  UNL1       -0.5474
     23 O         139.2431  144.9447  161.2775 O.3     1  UNL1       -0.4689
     24 C         138.7003  144.1470  162.4260 C.3     1  UNL1        0.2537
     25 C         139.6384  143.5315  163.4215 C.ar    1  UNL1        0.1359
     26 N         140.6714  142.4839  163.1288 N.ar    1  UNL1       -0.2093
     27 C         141.3797  142.1604  164.4108 C.ar    1  UNL1        0.2299
     28 O         140.7844  143.0079  165.4959 O.2     1  UNL1       -0.4391
     29 C         139.7082  143.8553  164.8844 C.ar    1  UNL1        0.1421
     30 C         138.8522  144.8516  165.6088 C.3     1  UNL1        0.0740
     31 C         142.4885  141.1642  164.5784 C.ar    1  UNL1        0.0641
     32 C         142.2238  139.8551  165.2610 C.ar    1  UNL1        0.0055
     33 C         143.3325  138.8588  165.4286 C.ar    1  UNL1        0.0002
     34 C         144.7062  139.1718  164.9135 C.ar    1  UNL1        0.0009
     35 C         144.9709  140.4810  164.2308 C.ar    1  UNL1        0.0115
     36 C         143.8620  141.4772  164.0632 C.ar    1  UNL1        0.0621
     37 CL        144.1268  142.7862  163.3806 Cl      1  UNL1       -0.0821
@<TRIPOS>UNITY_ATOM_ATTR
21 1
charge -1
@<TRIPOS>BOND
     1    12    13    1
     2    13    14   ar
     3    14    15   ar
     4    15    16   ar
     5    16    11    1
     6    11     8    1
     7     8     9    2
     8     8    10   am
     9    10    19    1
    10    19    20    1
    11    20    21   ar
    12    20    22   ar
    13    10     7    1
    14     7     1    1
    15     1     2   ar
    16     2     3   ar
    17     3     4   ar
    18     4     5   ar
    19     5    23    1
    20    23    24    1
    21    24    25    1
    22    25    26   ar
    23    26    27   ar
    24    27    31    1
    25    31    32   ar
    26    32    33   ar
    27    33    34   ar
    28    34    35   ar
    29    35    36   ar
    30    36    37    1
    31    27    28   ar
    32    28    29   ar
    33    29    30    1
    34     5     6   ar
    35    16    17   ar
    36    17    18   ar
    37    18    13   ar
    38     6     1   ar
    39    29    25   ar
    40    36    31   ar
@<TRIPOS>MOLECULE
*****
 37 40 0 0 0
SMALL
GASTEIGER

@<TRIPOS>ATOM
      1 C         140.8989  142.4454  158.9038 C.ar    1  UNL1        0.0008
      2 C         141.7238  143.3131  158.0002 C.ar    1  UNL1       -0.0024
      3 C         141.8165  144.7882  158.2563 C.ar    1  UNL1        0.0028
      4 C         141.0842  145.3955  159.4160 C.ar    1  UNL1        0.0369
      5 C         140.2593  144.5278  160.3197 C.ar    1  UNL1        0.1389
      6 C         140.1666  143.0527  160.0636 C.ar    1  UNL1        0.0343
      7 C         140.8062  140.9703  158.6477 C.3     1  UNL1        0.1239
      8 C         140.2384  139.1413  160.4034 C.2     1  UNL1        0.4100
      9 O         141.6997  138.9649  160.6922 O.2     1  UNL1       -0.2258
     10 N         139.7916  140.1440  159.3811 N.am    1  UNL1       -0.2363
     11 O         139.2239  138.3151  161.1368 O.3     1  UNL1       -0.4101
     12 C         138.3818  139.1268  167.0217 C.3     1  UNL1        0.0310
     13 C         138.5923  138.9238  165.5505 C.ar    1  UNL1       -0.0217
     14 C         139.2809  137.6867  165.0550 C.ar    1  UNL1       -0.0011
     15 C         139.4914  137.4838  163.5838 C.ar    1  UNL1        0.0373
     16 C         139.0134  138.5180  162.6080 C.ar    1  UNL1        0.1500
     17 C         138.3248  139.7551  163.1035 C.ar    1  UNL1        0.0373
     18 C         138.1143  139.9580  164.5748 C.ar    1  UNL1       -0.0011
     19 C         138.3303  140.3204  159.0923 C.3     1  UNL1        0.1388
     20 C         137.8849  140.7975  157.7418 C.2     1  UNL1        0.0706
     21 O         137.8057  139.8342  156.5946 O.co2   1  UNL1       -0.5474
     22 O         137.5188  142.2378  157.5383 O.co2   1  UNL1       -0.5474
     23 O         139.5271  145.1351  161.4794 O.3     1  UNL1       -0.4689
     24 C         140.2288  145.3293  162.7908 C.3     1  UNL1        0.2537
     25 C         140.3247  144.1933  163.7656 C.ar    1  UNL1        0.1359
     26 N         141.2505  143.0177  163.6612 N.ar    1  UNL1       -0.2093
     27 C         141.0097  142.1312  164.8470 C.ar    1  UNL1        0.2299
     28 O         139.9349  142.7590  165.6844 O.2     1  UNL1       -0.4391
     29 C         139.5116  144.0334  165.0159 C.ar    1  UNL1        0.1421
     30 C         138.4599  144.9815  165.5110 C.3     1  UNL1        0.0740
     31 C         141.7189  140.8433  165.1435 C.ar    1  UNL1        0.0641
     32 C         142.2094  139.9810  164.0184 C.ar    1  UNL1        0.0055
     33 C         142.9187  138.6929  164.3148 C.ar    1  UNL1        0.0002
     34 C         143.1375  138.2672  165.7365 C.ar    1  UNL1        0.0009
     35 C         142.6470  139.1295  166.8616 C.ar    1  UNL1        0.0115
     36 C         141.9377  140.4176  166.5651 C.ar    1  UNL1        0.0621
     37 CL        141.4472  141.2798  167.6902 Cl      1  UNL1       -0.0821
@<TRIPOS>UNITY_ATOM_ATTR
21 1
charge -1
@<TRIPOS>BOND
     1    12    13    1
     2    13    14   ar
     3    14    15   ar
     4    15    16   ar
     5    16    11    1
     6    11     8    1
     7     8     9    2
     8     8    10   am
     9    10    19    1
    10    19    20    1
    11    20    21   ar
    12    20    22   ar
    13    10     7    1
    14     7     1    1
    15     1     2   ar
    16     2     3   ar
    17     3     4   ar
    18     4     5   ar
    19     5    23    1
    20    23    24    1
    21    24    25    1
    22    25    26   ar
    23    26    27   ar
    24    27    31    1
    25    31    32   ar
    26    32    33   ar
    27    33    34   ar
    28    34    35   ar
    29    35    36   ar
    30    36    37    1
    31    27    28   ar
    32    28    29   ar
    33    29    30    1
    34     5     6   ar
    35    16    17   ar
    36    17    18   ar
    37    18    13   ar
    38     6     1   ar
    39    29    25   ar
    40    36    31   ar
@<TRIPOS>MOLECULE
*****
 37 40 0 0 0
SMALL
GASTEIGER

@<TRIPOS>ATOM
      1 C         140.6008  142.5350  159.4763 C.ar    1  UNL1        0.0008
      2 C         141.3514  143.6115  158.7499 C.ar    1  UNL1       -0.0024
      3 C         141.2146  145.0420  159.1797 C.ar    1  UNL1        0.0028
      4 C         140.3271  145.3961  160.3360 C.ar    1  UNL1        0.0369
      5 C         139.5764  144.3196  161.0624 C.ar    1  UNL1        0.1389
      6 C         139.7132  142.8891  160.6326 C.ar    1  UNL1        0.0343
      7 C         140.7376  141.1044  159.0465 C.3     1  UNL1        0.1239
      8 C         139.6719  139.2291  160.4948 C.2     1  UNL1        0.4100
      9 O         138.3326  139.5190  159.8846 O.2     1  UNL1       -0.2258
     10 N         140.8744  140.0219  160.0757 N.am    1  UNL1       -0.2363
     11 O         139.8087  138.1466  161.5240 O.3     1  UNL1       -0.4101
     12 C         138.0739  139.1479  167.1797 C.3     1  UNL1        0.0310
     13 C         138.5076  138.8975  165.7658 C.ar    1  UNL1       -0.0217
     14 C         138.5973  140.0381  164.7957 C.ar    1  UNL1       -0.0011
     15 C         139.0310  139.7878  163.3818 C.ar    1  UNL1        0.0373
     16 C         139.3750  138.3969  162.9379 C.ar    1  UNL1        0.1500
     17 C         139.2854  137.2563  163.9080 C.ar    1  UNL1        0.0373
     18 C         138.8517  137.5067  165.3219 C.ar    1  UNL1       -0.0011
     19 C         142.2137  139.7320  160.6858 C.3     1  UNL1        0.1388
     20 C         143.1558  138.7806  160.0097 C.2     1  UNL1        0.0706
     21 O         143.1909  137.3391  160.4232 O.co2   1  UNL1       -0.5474
     22 O         144.0629  139.2705  158.9202 O.co2   1  UNL1       -0.5474
     23 O         138.6889  144.6737  162.2187 O.3     1  UNL1       -0.4689
     24 C         139.2852  145.2192  163.4823 C.3     1  UNL1        0.2537
     25 C         140.1826  144.3581  164.3208 C.ar    1  UNL1        0.1359
     26 N         139.7484  143.4623  165.4430 N.ar    1  UNL1       -0.2093
     27 C         140.9692  142.7920  166.0001 C.ar    1  UNL1        0.2299
     28 O         142.1580  143.2736  165.2223 O.2     1  UNL1       -0.4391
     29 C         141.6719  144.2414  164.1845 C.ar    1  UNL1        0.1421
     30 C         142.5252  144.9655  163.1857 C.3     1  UNL1        0.0740
     31 C         140.9964  141.8124  167.1355 C.ar    1  UNL1        0.0641
     32 C         140.3688  142.1702  168.4501 C.ar    1  UNL1        0.0055
     33 C         140.3960  141.1906  169.5857 C.ar    1  UNL1        0.0002
     34 C         141.0509  139.8529  169.4066 C.ar    1  UNL1        0.0009
     35 C         141.6784  139.4951  168.0920 C.ar    1  UNL1        0.0115
     36 C         141.6512  140.4748  166.9565 C.ar    1  UNL1        0.0621
     37 CL        142.2788  140.1169  165.6420 Cl      1  UNL1       -0.0821
@<TRIPOS>UNITY_ATOM_ATTR
21 1
charge -1
@<TRIPOS>BOND
     1    12    13    1
     2    13    14   ar
     3    14    15   ar
     4    15    16   ar
     5    16    11    1
     6    11     8    1
     7     8     9    2
     8     8    10   am
     9    10    19    1
    10    19    20    1
    11    20    21   ar
    12    20    22   ar
    13    10     7    1
    14     7     1    1
    15     1     2   ar
    16     2     3   ar
    17     3     4   ar
    18     4     5   ar
    19     5    23    1
    20    23    24    1
    21    24    25    1
    22    25    26   ar
    23    26    27   ar
    24    27    31    1
    25    31    32   ar
    26    32    33   ar
    27    33    34   ar
    28    34    35   ar
    29    35    36   ar
    30    36    37    1
    31    27    28   ar
    32    28    29   ar
    33    29    30    1
    34     5     6   ar
    35    16    17   ar
    36    17    18   ar
    37    18    13   ar
    38     6     1   ar
    39    29    25   ar
    40    36    31   ar
