@<TRIPOS>MOLECULE
*****
 46 51 0 0 0
SMALL
GASTEIGER

@<TRIPOS>ATOM
      1 C         138.2077  139.9745  163.5260 C.ar    1  UNL1        0.1477
      2 C         138.6277  139.0408  164.6223 C.ar    1  UNL1        0.0846
      3 C         139.4888  137.8536  164.3074 C.ar    1  UNL1        0.0174
      4 C         139.9298  137.6001  162.8963 C.ar    1  UNL1       -0.0031
      5 C         139.5097  138.5339  161.8000 C.ar    1  UNL1       -0.0218
      6 C         138.6487  139.7210  162.1149 C.ar    1  UNL1        0.0091
      7 C         138.1213  140.7683  161.1794 C.3     1  UNL1        0.0292
      8 C         138.3247  140.8870  159.6980 C.3     1  UNL1        0.0062
      9 C         139.1057  139.9878  158.7863 C.3     1  UNL1        0.0166
     10 C         139.8763  138.7477  159.1306 C.3     1  UNL1        0.0619
     11 C         140.0561  138.1007  160.4719 C.3     1  UNL1        0.0421
     12 N         140.5570  138.0644  157.9819 N.3     1  UNL1       -0.2713
     13 C         142.0446  137.8725  157.9983 C.3     1  UNL1        0.0896
     14 C         142.7253  137.1891  156.8494 C.3     1  UNL1        0.0897
     15 N         141.9185  136.6977  155.6843 N.3     1  UNL1       -0.2682
     16 C         140.4309  136.8897  155.6679 C.3     1  UNL1        0.0897
     17 C         139.7502  137.5730  156.8168 C.3     1  UNL1        0.0896
     18 C         142.5992  136.0144  154.5356 C.3     1  UNL1        0.1043
     19 C         142.7646  134.5235  154.5410 C.3     1  UNL1        0.1544
     20 O         142.1787  133.7081  155.6553 O.3     1  UNL1       -0.3805
     21 H         142.6300  133.9245  156.4862 H       1  UNL1        0.2105
     22 C         137.9694  142.4226  164.3626 C.3     1  UNL1        0.2525
     23 O         137.3466  141.1617  163.8409 O.3     1  UNL1       -0.4705
     24 N         138.1868  139.2942  166.0334 N.pl3   1  UNL1       -0.2801
     25 H         137.2686  139.0709  166.3099 H       1  UNL1        0.1552
     26 C         139.1447  139.8880  167.0233 C.ar    1  UNL1        0.2219
     27 N         138.9282  139.6815  168.4932 N.ar    1  UNL1       -0.2110
     28 C         139.8861  140.2751  169.4831 C.ar    1  UNL1        0.1160
     29 C         141.0606  141.0754  169.0031 C.ar    1  UNL1        0.1082
     30 CL        142.0185  141.6691  169.9930 Cl      1  UNL1       -0.0777
     31 C         141.2771  141.2819  167.5332 C.ar    1  UNL1        0.1435
     32 N         140.3192  140.6882  166.5433 N.ar    1  UNL1       -0.1979
     33 N         142.4515  142.0821  167.0532 N.pl3   1  UNL1       -0.3181
     34 H         142.6687  142.9422  167.4801 H       1  UNL1        0.1482
     35 C         143.2950  141.5719  165.9227 C.3     1  UNL1        0.0832
     36 C         144.2103  142.3941  165.0647 C.3     1  UNL1        0.0984
     37 C         144.8524  141.4802  164.0634 C.3     1  UNL1        0.0323
     38 C         144.9287  140.0581  163.5923 C.2     1  UNL1       -0.0304
     39 C         144.0134  139.2359  164.4503 C.2     1  UNL1       -0.0294
     40 C         143.3713  140.1498  165.4516 C.3     1  UNL1        0.0404
     41 C         143.8899  141.5369  165.2124 C.3     1  UNL1        0.0109
     42 C         144.4428  143.8710  165.1866 C.2     1  UNL1        0.2208
     43 N         143.7495  144.8189  164.2535 N.am    1  UNL1       -0.3288
     44 O         145.3687  144.3999  166.2416 O.2     1  UNL1       -0.2753
     45 H         143.1418  144.4717  163.5610 H       1  UNL1        0.1449
     46 H         143.9021  145.7882  164.3334 H       1  UNL1        0.1449
@<TRIPOS>BOND
     1    22    23    1
     2    23     1    1
     3     1     2   ar
     4     2    24    1
     5    24    26    1
     6    26    27   ar
     7    27    28   ar
     8    28    29   ar
     9    29    30    1
    10    29    31   ar
    11    31    33    1
    12    35    33    1
    13    35    36    1
    14    36    42    1
    15    42    43   am
    16    42    44    2
    17    36    37    1
    18    37    38    1
    19    38    39    2
    20    40    39    1
    21    40    41    1
    22    31    32   ar
    23     2     3   ar
    24     3     4   ar
    25     4     5   ar
    26     5     6   ar
    27     6     7    1
    28     7     8    1
    29     8     9    1
    30     9    10    1
    31    10    12    1
    32    12    13    1
    33    13    14    1
    34    14    15    1
    35    15    18    1
    36    18    19    1
    37    19    20    1
    38    15    16    1
    39    16    17    1
    40    10    11    1
    41     6     1   ar
    42    17    12    1
    43    32    26   ar
    44    11     5    1
    45    40    35    1
    46    41    37    1
    47    24    25    1
    48    33    34    1
    49    43    45    1
    50    43    46    1
    51    20    21    1
@<TRIPOS>MOLECULE
*****
 46 51 0 0 0
SMALL
GASTEIGER

@<TRIPOS>ATOM
      1 C         140.0508  142.7128  158.0237 C.ar    1  UNL1        0.1477
      2 C         141.1594  142.8024  159.0303 C.ar    1  UNL1        0.0846
      3 C         141.8604  144.1085  159.2596 C.ar    1  UNL1        0.0174
      4 C         141.4529  145.3251  158.4823 C.ar    1  UNL1       -0.0031
      5 C         140.3443  145.2354  157.4758 C.ar    1  UNL1       -0.0218
      6 C         139.6433  143.9293  157.2466 C.ar    1  UNL1        0.0091
      7 C         138.5218  143.6236  156.2985 C.3     1  UNL1        0.0292
      8 C         137.8244  144.5486  155.3454 C.3     1  UNL1        0.0062
      9 C         138.0763  146.0075  155.1053 C.3     1  UNL1        0.0166
     10 C         139.0877  146.9021  155.7586 C.3     1  UNL1        0.0619
     11 C         140.0970  146.5584  156.8137 C.3     1  UNL1        0.0421
     12 N         139.0900  148.3288  155.2958 N.3     1  UNL1       -0.2713
     13 C         138.4979  149.3997  156.1635 C.3     1  UNL1        0.0896
     14 C         138.5003  150.8266  155.7006 C.3     1  UNL1        0.0897
     15 N         139.0946  151.1826  154.3702 N.3     1  UNL1       -0.2682
     16 C         139.6867  150.1117  153.5025 C.3     1  UNL1        0.0897
     17 C         139.6843  148.6848  153.9654 C.3     1  UNL1        0.0896
     18 C         139.0970  152.6093  153.9074 C.3     1  UNL1        0.1043
     19 C         138.3713  152.9916  152.6514 C.3     1  UNL1        0.1544
     20 O         137.0210  153.6396  152.7331 O.3     1  UNL1       -0.3805
     21 H         136.3826  153.0108  153.1045 H       1  UNL1        0.2105
     22 C         138.2643  140.9637  158.7301 C.3     1  UNL1        0.2525
     23 O         139.3497  141.4067  157.7944 O.3     1  UNL1       -0.4705
     24 N         141.5670  141.5860  159.8075 N.pl3   1  UNL1       -0.2801
     25 H         141.5939  140.7062  159.3665 H       1  UNL1        0.1552
     26 C         141.9334  141.7100  161.2567 C.ar    1  UNL1        0.2219
     27 N         143.3610  141.5434  161.6864 N.ar    1  UNL1       -0.2110
     28 C         143.7275  141.6674  163.1355 C.ar    1  UNL1        0.1160
     29 C         142.6664  141.9580  164.1553 C.ar    1  UNL1        0.1082
     30 CL        143.0329  142.0821  165.6045 Cl      1  UNL1       -0.0777
     31 C         141.2389  142.1246  163.7257 C.ar    1  UNL1        0.1435
     32 N         140.8724  142.0006  162.2765 N.ar    1  UNL1       -0.1979
     33 N         140.1779  142.4153  164.7454 N.pl3   1  UNL1       -0.3181
     34 H         139.9193  143.3461  164.9351 H       1  UNL1        0.1482
     35 C         139.5108  141.2878  165.4759 C.3     1  UNL1        0.0832
     36 C         138.4714  140.3647  164.9124 C.3     1  UNL1        0.0984
     37 C         138.0841  139.3918  165.9864 C.3     1  UNL1        0.0323
     38 C         138.3392  138.9895  167.4088 C.2     1  UNL1       -0.0304
     39 C         139.3786  139.9127  167.9723 C.2     1  UNL1       -0.0294
     40 C         139.7658  140.8855  166.8982 C.3     1  UNL1        0.0404
     41 C         138.9658  140.5636  165.6709 C.3     1  UNL1        0.0109
     42 C         137.9167  140.4069  163.5193 C.2     1  UNL1        0.2208
     43 N         136.8382  141.3895  163.1710 N.am    1  UNL1       -0.3288
     44 O         138.4405  139.4666  162.4746 O.2     1  UNL1       -0.2753
     45 H         136.4944  142.0067  163.8566 H       1  UNL1        0.1449
     46 H         136.4741  141.4172  162.2567 H       1  UNL1        0.1449
@<TRIPOS>BOND
     1    22    23    1
     2    23     1    1
     3     1     2   ar
     4     2    24    1
     5    24    26    1
     6    26    27   ar
     7    27    28   ar
     8    28    29   ar
     9    29    30    1
    10    29    31   ar
    11    31    33    1
    12    35    33    1
    13    35    36    1
    14    36    42    1
    15    42    43   am
    16    42    44    2
    17    36    37    1
    18    37    38    1
    19    38    39    2
    20    40    39    1
    21    40    41    1
    22    31    32   ar
    23     2     3   ar
    24     3     4   ar
    25     4     5   ar
    26     5     6   ar
    27     6     7    1
    28     7     8    1
    29     8     9    1
    30     9    10    1
    31    10    12    1
    32    12    13    1
    33    13    14    1
    34    14    15    1
    35    15    18    1
    36    18    19    1
    37    19    20    1
    38    15    16    1
    39    16    17    1
    40    10    11    1
    41     6     1   ar
    42    17    12    1
    43    32    26   ar
    44    11     5    1
    45    40    35    1
    46    41    37    1
    47    24    25    1
    48    33    34    1
    49    43    45    1
    50    43    46    1
    51    20    21    1
@<TRIPOS>MOLECULE
*****
 46 51 0 0 0
SMALL
GASTEIGER

@<TRIPOS>ATOM
      1 C         143.5308  139.0575  163.2100 C.ar    1  UNL1        0.1477
      2 C         142.7206  138.3183  164.2333 C.ar    1  UNL1        0.0846
      3 C         141.4308  137.6625  163.8377 C.ar    1  UNL1        0.0174
      4 C         140.9513  137.7460  162.4188 C.ar    1  UNL1       -0.0031
      5 C         141.7616  138.4853  161.3956 C.ar    1  UNL1       -0.0218
      6 C         143.0513  139.1410  161.7912 C.ar    1  UNL1        0.0091
      7 C         144.0048  139.9212  160.9355 C.3     1  UNL1        0.0292
      8 C         143.9040  140.2384  159.4729 C.3     1  UNL1        0.0062
      9 C         142.8248  139.8537  158.5048 C.3     1  UNL1        0.0166
     10 C         141.5799  139.0568  158.7600 C.3     1  UNL1        0.0619
     11 C         141.1067  138.4478  160.0466 C.3     1  UNL1        0.0421
     12 N         140.6906  138.8403  157.5717 N.3     1  UNL1       -0.2713
     13 C         140.3836  137.4469  157.1086 C.3     1  UNL1        0.0896
     14 C         139.4943  137.2304  155.9202 C.3     1  UNL1        0.0897
     15 N         138.9120  138.4072  155.1949 N.3     1  UNL1       -0.2682
     16 C         139.2190  139.8006  155.6579 C.3     1  UNL1        0.0897
     17 C         140.1083  140.0171  156.8464 C.3     1  UNL1        0.0896
     18 C         138.0227  138.1907  154.0065 C.3     1  UNL1        0.1043
     19 C         136.6165  137.7057  154.2005 C.3     1  UNL1        0.1544
     20 O         135.6055  138.5862  154.8731 O.3     1  UNL1       -0.3805
     21 H         135.8598  138.7214  155.7993 H       1  UNL1        0.2105
     22 C         144.8084  141.0798  164.2238 C.3     1  UNL1        0.2525
     23 O         144.8206  139.7132  163.6056 O.3     1  UNL1       -0.4705
     24 N         143.2000  138.2347  165.6521 N.pl3   1  UNL1       -0.2801
     25 H         143.8784  137.5672  165.9040 H       1  UNL1        0.1552
     26 C         142.6459  139.1683  166.6872 C.ar    1  UNL1        0.2219
     27 N         143.0241  138.9996  168.1289 N.ar    1  UNL1       -0.2110
     28 C         142.4700  139.9331  169.1639 C.ar    1  UNL1        0.1160
     29 C         141.5375  141.0355  168.7573 C.ar    1  UNL1        0.1082
     30 CL        140.9834  141.9692  169.7923 Cl      1  UNL1       -0.0777
     31 C         141.1593  141.2044  167.3156 C.ar    1  UNL1        0.1435
     32 N         141.7134  140.2708  166.2805 N.ar    1  UNL1       -0.1979
     33 N         140.2269  142.3067  166.9089 N.pl3   1  UNL1       -0.3181
     34 H         140.2028  143.1459  167.4232 H       1  UNL1        0.1482
     35 C         139.3313  142.1306  165.7186 C.3     1  UNL1        0.0832
     36 C         138.7616  143.2311  164.8733 C.3     1  UNL1        0.0984
     37 C         137.9263  142.6037  163.7969 C.3     1  UNL1        0.0323
     38 C         137.4430  141.2962  163.2430 C.2     1  UNL1       -0.0304
     39 C         138.0126  140.1958  164.0883 C.2     1  UNL1       -0.0294
     40 C         138.8480  140.8231  165.1647 C.3     1  UNL1        0.0404
     41 C         138.7946  142.3114  164.9846 C.3     1  UNL1        0.0109
     42 C         138.9876  144.7009  165.0699 C.2     1  UNL1        0.2208
     43 N         139.9570  145.4348  164.1913 N.am    1  UNL1       -0.3288
     44 O         138.2443  145.4368  166.1450 O.2     1  UNL1       -0.2753
     45 H         140.4448  144.9517  163.4857 H       1  UNL1        0.1449
     46 H         140.1053  146.3994  164.3203 H       1  UNL1        0.1449
@<TRIPOS>BOND
     1    22    23    1
     2    23     1    1
     3     1     2   ar
     4     2    24    1
     5    24    26    1
     6    26    27   ar
     7    27    28   ar
     8    28    29   ar
     9    29    30    1
    10    29    31   ar
    11    31    33    1
    12    35    33    1
    13    35    36    1
    14    36    42    1
    15    42    43   am
    16    42    44    2
    17    36    37    1
    18    37    38    1
    19    38    39    2
    20    40    39    1
    21    40    41    1
    22    31    32   ar
    23     2     3   ar
    24     3     4   ar
    25     4     5   ar
    26     5     6   ar
    27     6     7    1
    28     7     8    1
    29     8     9    1
    30     9    10    1
    31    10    12    1
    32    12    13    1
    33    13    14    1
    34    14    15    1
    35    15    18    1
    36    18    19    1
    37    19    20    1
    38    15    16    1
    39    16    17    1
    40    10    11    1
    41     6     1   ar
    42    17    12    1
    43    32    26   ar
    44    11     5    1
    45    40    35    1
    46    41    37    1
    47    24    25    1
    48    33    34    1
    49    43    45    1
    50    43    46    1
    51    20    21    1
@<TRIPOS>MOLECULE
*****
 46 51 0 0 0
SMALL
GASTEIGER

@<TRIPOS>ATOM
      1 C         139.5760  141.1122  157.3822 C.ar    1  UNL1        0.1477
      2 C         140.2924  141.7923  158.5111 C.ar    1  UNL1        0.0846
      3 C         141.4336  141.1031  159.1986 C.ar    1  UNL1        0.0174
      4 C         141.8584  139.7339  158.7572 C.ar    1  UNL1       -0.0031
      5 C         141.1420  139.0538  157.6283 C.ar    1  UNL1       -0.0218
      6 C         140.0009  139.7430  156.9409 C.ar    1  UNL1        0.0091
      7 C         139.1577  139.2478  155.8034 C.3     1  UNL1        0.0292
      8 C         139.2476  137.9409  155.0725 C.3     1  UNL1        0.0062
      9 C         140.2027  136.8067  155.2986 C.3     1  UNL1        0.0166
     10 C         141.3039  136.6990  156.3114 C.3     1  UNL1        0.0619
     11 C         141.7220  137.6991  157.3482 C.3     1  UNL1        0.0421
     12 N         142.0912  135.4226  156.2836 N.3     1  UNL1       -0.2713
     13 C         141.7621  134.3601  155.2771 C.3     1  UNL1        0.0896
     14 C         142.5494  133.0836  155.2495 C.3     1  UNL1        0.0897
     15 N         143.6658  132.8695  156.2282 N.3     1  UNL1       -0.2682
     16 C         143.9949  133.9320  157.2347 C.3     1  UNL1        0.0897
     17 C         143.2075  135.2085  157.2624 C.3     1  UNL1        0.0896
     18 C         144.4530  131.5931  156.2005 C.3     1  UNL1        0.1043
     19 C         144.2173  130.5901  155.1103 C.3     1  UNL1        0.1544
     20 O         145.3110  129.6438  154.7125 O.3     1  UNL1       -0.3805
     21 H         146.0431  130.1432  154.3180 H       1  UNL1        0.2105
     22 C         137.0361  141.6305  157.2087 C.3     1  UNL1        0.2525
     23 O         138.4348  141.8014  156.6946 O.3     1  UNL1       -0.4705
     24 N         139.8676  143.1615  158.9525 N.pl3   1  UNL1       -0.2801
     25 H         139.9481  143.9246  158.3357 H       1  UNL1        0.1552
     26 C         139.3201  143.3679  160.3337 C.ar    1  UNL1        0.2219
     27 N         139.5870  144.6518  161.0621 N.ar    1  UNL1       -0.2110
     28 C         139.0396  144.8583  162.4432 C.ar    1  UNL1        0.1160
     29 C         138.2253  143.7808  163.0961 C.ar    1  UNL1        0.1082
     30 CL        137.6778  143.9873  164.4773 Cl      1  UNL1       -0.0777
     31 C         137.9584  142.4970  162.3677 C.ar    1  UNL1        0.1435
     32 N         138.5058  142.2905  160.9865 N.ar    1  UNL1       -0.1979
     33 N         137.1441  141.4196  163.0204 N.pl3   1  UNL1       -0.3181
     34 H         136.1635  141.4986  163.0587 H       1  UNL1        0.1482
     35 C         137.8237  140.2219  163.6149 C.3     1  UNL1        0.0832
     36 C         138.3163  139.0227  162.8604 C.3     1  UNL1        0.0984
     37 C         138.9271  138.0727  163.8474 C.3     1  UNL1        0.0323
     38 C         139.2336  137.8638  165.3009 C.2     1  UNL1       -0.0304
     39 C         138.7410  139.0630  166.0554 C.2     1  UNL1       -0.0294
     40 C         138.1302  140.0130  165.0683 C.3     1  UNL1        0.0404
     41 C         138.2452  139.4009  163.7037 C.3     1  UNL1        0.0109
     42 C         138.2156  138.8107  161.3788 C.2     1  UNL1        0.2208
     43 N         139.3040  138.0795  160.6501 N.am    1  UNL1       -0.3288
     44 O         137.0267  139.3299  160.6259 O.2     1  UNL1       -0.2753
     45 H         140.0843  137.7387  161.1443 H       1  UNL1        0.1449
     46 H         139.2379  137.9403  159.6778 H       1  UNL1        0.1449
@<TRIPOS>BOND
     1    22    23    1
     2    23     1    1
     3     1     2   ar
     4     2    24    1
     5    24    26    1
     6    26    27   ar
     7    27    28   ar
     8    28    29   ar
     9    29    30    1
    10    29    31   ar
    11    31    33    1
    12    35    33    1
    13    35    36    1
    14    36    42    1
    15    42    43   am
    16    42    44    2
    17    36    37    1
    18    37    38    1
    19    38    39    2
    20    40    39    1
    21    40    41    1
    22    31    32   ar
    23     2     3   ar
    24     3     4   ar
    25     4     5   ar
    26     5     6   ar
    27     6     7    1
    28     7     8    1
    29     8     9    1
    30     9    10    1
    31    10    12    1
    32    12    13    1
    33    13    14    1
    34    14    15    1
    35    15    18    1
    36    18    19    1
    37    19    20    1
    38    15    16    1
    39    16    17    1
    40    10    11    1
    41     6     1   ar
    42    17    12    1
    43    32    26   ar
    44    11     5    1
    45    40    35    1
    46    41    37    1
    47    24    25    1
    48    33    34    1
    49    43    45    1
    50    43    46    1
    51    20    21    1
@<TRIPOS>MOLECULE
*****
 46 51 0 0 0
SMALL
GASTEIGER

@<TRIPOS>ATOM
      1 C         143.2669  142.5691  163.2791 C.ar    1  UNL1        0.1477
      2 C         143.9433  141.8530  164.4103 C.ar    1  UNL1        0.0846
      3 C         144.4608  140.4590  164.2128 C.ar    1  UNL1        0.0174
      4 C         144.3019  139.7812  162.8841 C.ar    1  UNL1       -0.0031
      5 C         143.6255  140.4975  161.7530 C.ar    1  UNL1       -0.0218
      6 C         143.1080  141.8913  161.9505 C.ar    1  UNL1        0.0091
      7 C         142.4083  142.7779  160.9633 C.3     1  UNL1        0.0292
      8 C         142.0533  142.4893  159.5347 C.3     1  UNL1        0.0062
      9 C         142.3103  141.2431  158.7407 C.3     1  UNL1        0.0166
     10 C         142.9858  139.9775  159.1788 C.3     1  UNL1        0.0619
     11 C         143.5711  139.6456  160.5195 C.3     1  UNL1        0.0421
     12 N         143.0897  138.9015  158.1390 N.3     1  UNL1       -0.2713
     13 C         143.5757  139.2357  156.7598 C.3     1  UNL1        0.0896
     14 C         143.6796  138.1596  155.7199 C.3     1  UNL1        0.0897
     15 N         143.2975  136.7494  156.0591 N.3     1  UNL1       -0.2682
     16 C         142.8115  136.4151  157.4383 C.3     1  UNL1        0.0897
     17 C         142.7076  137.4912  158.4782 C.3     1  UNL1        0.0896
     18 C         143.4014  135.6734  155.0193 C.3     1  UNL1        0.1043
     19 C         143.4112  134.2310  155.4309 C.3     1  UNL1        0.1544
     20 O         144.5072  133.7100  156.3124 O.3     1  UNL1       -0.3805
     21 H         145.3513  133.7485  155.8360 H       1  UNL1        0.2105
     22 C         143.6964  145.1259  163.4471 C.3     1  UNL1        0.2525
     23 O         142.7494  143.9631  163.4766 O.3     1  UNL1       -0.4705
     24 N         144.1022  142.5307  165.7390 N.pl3   1  UNL1       -0.2801
     25 H         144.8408  143.1656  165.8826 H       1  UNL1        0.1552
     26 C         143.1358  142.2409  166.8490 C.ar    1  UNL1        0.2219
     27 N         143.4959  142.5809  168.2650 N.ar    1  UNL1       -0.2110
     28 C         142.5296  142.2912  169.3749 C.ar    1  UNL1        0.1160
     29 C         141.2029  141.6615  169.0690 C.ar    1  UNL1        0.1082
     30 CL        140.2365  141.3718  170.1790 Cl      1  UNL1       -0.0777
     31 C         140.8427  141.3215  167.6531 C.ar    1  UNL1        0.1435
     32 N         141.8091  141.6112  166.5431 N.ar    1  UNL1       -0.1979
     33 N         139.5161  140.6918  167.3472 N.pl3   1  UNL1       -0.3181
     34 H         138.8177  140.6539  168.0401 H       1  UNL1        0.1482
     35 C         139.2534  140.1200  165.9856 C.3     1  UNL1        0.0832
     36 C         138.9265  140.9029  164.7486 C.3     1  UNL1        0.0984
     37 C         138.7426  139.9317  163.6204 C.3     1  UNL1        0.0323
     38 C         138.7608  138.4765  163.2567 C.2     1  UNL1       -0.0304
     39 C         139.0877  137.6937  164.4937 C.2     1  UNL1       -0.0294
     40 C         139.2716  138.6649  165.6220 C.3     1  UNL1        0.0404
     41 C         139.0583  140.0481  165.0821 C.3     1  UNL1        0.0109
     42 C         138.8049  142.3952  164.6560 C.2     1  UNL1        0.2208
     43 N         140.0387  143.2475  164.6209 N.am    1  UNL1       -0.3288
     44 O         137.4494  143.0350  164.5985 O.2     1  UNL1       -0.2753
     45 H         140.9283  142.8275  164.6587 H       1  UNL1        0.1449
     46 H         139.9589  144.2269  164.5601 H       1  UNL1        0.1449
@<TRIPOS>BOND
     1    22    23    1
     2    23     1    1
     3     1     2   ar
     4     2    24    1
     5    24    26    1
     6    26    27   ar
     7    27    28   ar
     8    28    29   ar
     9    29    30    1
    10    29    31   ar
    11    31    33    1
    12    35    33    1
    13    35    36    1
    14    36    42    1
    15    42    43   am
    16    42    44    2
    17    36    37    1
    18    37    38    1
    19    38    39    2
    20    40    39    1
    21    40    41    1
    22    31    32   ar
    23     2     3   ar
    24     3     4   ar
    25     4     5   ar
    26     5     6   ar
    27     6     7    1
    28     7     8    1
    29     8     9    1
    30     9    10    1
    31    10    12    1
    32    12    13    1
    33    13    14    1
    34    14    15    1
    35    15    18    1
    36    18    19    1
    37    19    20    1
    38    15    16    1
    39    16    17    1
    40    10    11    1
    41     6     1   ar
    42    17    12    1
    43    32    26   ar
    44    11     5    1
    45    40    35    1
    46    41    37    1
    47    24    25    1
    48    33    34    1
    49    43    45    1
    50    43    46    1
    51    20    21    1
@<TRIPOS>MOLECULE
*****
 46 51 0 0 0
SMALL
GASTEIGER

@<TRIPOS>ATOM
      1 C         139.0780  140.3766  164.1201 C.ar    1  UNL1        0.1477
      2 C         138.6668  139.2367  165.0043 C.ar    1  UNL1        0.0846
      3 C         138.7344  137.8284  164.4925 C.ar    1  UNL1        0.0174
      4 C         139.2133  137.5598  163.0965 C.ar    1  UNL1       -0.0031
      5 C         139.6245  138.6997  162.2124 C.ar    1  UNL1       -0.0218
      6 C         139.5569  140.1080  162.7242 C.ar    1  UNL1        0.0091
      7 C         139.9165  141.3795  162.0141 C.3     1  UNL1        0.0292
      8 C         140.4326  141.5565  160.6168 C.3     1  UNL1        0.0062
      9 C         140.7164  140.5059  159.5846 C.3     1  UNL1        0.0166
     10 C         140.5544  139.0187  159.6946 C.3     1  UNL1        0.0619
     11 C         140.0685  138.2149  160.8641 C.3     1  UNL1        0.0421
     12 N         140.9277  138.2313  158.4738 N.3     1  UNL1       -0.2713
     13 C         139.8919  137.9255  157.4328 C.3     1  UNL1        0.0896
     14 C         140.2652  137.1380  156.2119 C.3     1  UNL1        0.0897
     15 N         141.6743  136.6564  156.0319 N.3     1  UNL1       -0.2682
     16 C         142.7102  136.9621  157.0729 C.3     1  UNL1        0.0897
     17 C         142.3368  137.7496  158.2938 C.3     1  UNL1        0.0896
     18 C         142.0476  135.8689  154.8111 C.3     1  UNL1        0.1043
     19 C         141.5750  134.4536  154.6579 C.3     1  UNL1        0.1544
     20 O         141.2637  133.6312  155.8731 O.3     1  UNL1       -0.3805
     21 H         142.0785  133.4767  156.3763 H       1  UNL1        0.2105
     22 C         137.7361  142.5668  164.5100 C.3     1  UNL1        0.2525
     23 O         139.0104  141.7850  164.6319 O.3     1  UNL1       -0.4705
     24 N         138.1879  139.5052  166.4002 N.pl3   1  UNL1       -0.2801
     25 H         137.2260  139.4674  166.6064 H       1  UNL1        0.1552
     26 C         139.1747  139.8313  167.4818 C.ar    1  UNL1        0.2219
     27 N         138.7545  139.7797  168.9209 N.ar    1  UNL1       -0.2110
     28 C         139.7412  140.1058  170.0025 C.ar    1  UNL1        0.1160
     29 C         141.1482  140.4834  169.6451 C.ar    1  UNL1        0.1082
     30 CL        142.1350  140.8094  170.7268 Cl      1  UNL1       -0.0777
     31 C         141.5685  140.5349  168.2061 C.ar    1  UNL1        0.1435
     32 N         140.5818  140.2089  167.1245 N.ar    1  UNL1       -0.1979
     33 N         142.9755  140.9125  167.8487 N.pl3   1  UNL1       -0.3181
     34 H         143.6837  140.8754  168.5316 H       1  UNL1        0.1482
     35 C         143.3036  141.3466  166.4509 C.3     1  UNL1        0.0832
     36 C         143.4681  140.4451  165.2634 C.3     1  UNL1        0.0984
     37 C         143.7909  141.2998  164.0738 C.3     1  UNL1        0.0323
     38 C         144.0120  142.7117  163.6181 C.2     1  UNL1       -0.0304
     39 C         143.8475  143.6132  164.8056 C.2     1  UNL1       -0.0294
     40 C         143.5247  142.7585  165.9952 C.3     1  UNL1        0.0404
     41 C         143.4897  141.3287  165.5429 C.3     1  UNL1        0.0109
     42 C         143.3334  138.9511  165.2652 C.2     1  UNL1        0.2208
     43 N         142.5937  138.2634  164.1562 N.am    1  UNL1       -0.3288
     44 O         143.9386  138.1449  166.3760 O.2     1  UNL1       -0.2753
     45 H         142.1966  138.7926  163.4272 H       1  UNL1        0.1449
     46 H         142.5053  137.2829  164.1574 H       1  UNL1        0.1449
@<TRIPOS>BOND
     1    22    23    1
     2    23     1    1
     3     1     2   ar
     4     2    24    1
     5    24    26    1
     6    26    27   ar
     7    27    28   ar
     8    28    29   ar
     9    29    30    1
    10    29    31   ar
    11    31    33    1
    12    35    33    1
    13    35    36    1
    14    36    42    1
    15    42    43   am
    16    42    44    2
    17    36    37    1
    18    37    38    1
    19    38    39    2
    20    40    39    1
    21    40    41    1
    22    31    32   ar
    23     2     3   ar
    24     3     4   ar
    25     4     5   ar
    26     5     6   ar
    27     6     7    1
    28     7     8    1
    29     8     9    1
    30     9    10    1
    31    10    12    1
    32    12    13    1
    33    13    14    1
    34    14    15    1
    35    15    18    1
    36    18    19    1
    37    19    20    1
    38    15    16    1
    39    16    17    1
    40    10    11    1
    41     6     1   ar
    42    17    12    1
    43    32    26   ar
    44    11     5    1
    45    40    35    1
    46    41    37    1
    47    24    25    1
    48    33    34    1
    49    43    45    1
    50    43    46    1
    51    20    21    1
@<TRIPOS>MOLECULE
*****
 46 51 0 0 0
SMALL
GASTEIGER

@<TRIPOS>ATOM
      1 C         139.2990  140.2202  162.7836 C.ar    1  UNL1        0.1477
      2 C         138.3586  140.8358  163.7770 C.ar    1  UNL1        0.0846
      3 C         137.7174  142.1594  163.4823 C.ar    1  UNL1        0.0174
      4 C         138.0164  142.8674  162.1941 C.ar    1  UNL1       -0.0031
      5 C         138.9568  142.2517  161.2007 C.ar    1  UNL1       -0.0218
      6 C         139.5980  140.9282  161.4955 C.ar    1  UNL1        0.0091
      7 C         140.5573  140.1445  160.6494 C.3     1  UNL1        0.0292
      8 C         141.1122  140.4911  159.2996 C.3     1  UNL1        0.0062
      9 C         140.8449  141.7066  158.4625 C.3     1  UNL1        0.0166
     10 C         139.9567  142.8761  158.7684 C.3     1  UNL1        0.0619
     11 C         139.1164  143.1186  159.9870 C.3     1  UNL1        0.0421
     12 N         139.9015  143.9441  157.7167 N.3     1  UNL1       -0.2713
     13 C         140.7876  145.1496  157.8247 C.3     1  UNL1        0.0896
     14 C         140.7324  146.2177  156.7729 C.3     1  UNL1        0.0897
     15 N         139.7911  146.0803  155.6131 N.3     1  UNL1       -0.2682
     16 C         138.9050  144.8748  155.5051 C.3     1  UNL1        0.0897
     17 C         138.9602  143.8067  156.5569 C.3     1  UNL1        0.0896
     18 C         139.7359  147.1483  154.5614 C.3     1  UNL1        0.1043
     19 C         139.2241  148.5154  154.9068 C.3     1  UNL1        0.1544
     20 O         138.3403  148.7050  156.1038 O.3     1  UNL1       -0.3805
     21 H         137.4972  148.2478  155.9589 H       1  UNL1        0.2105
     22 C         139.1483  137.6309  162.9343 C.3     1  UNL1        0.2525
     23 O         139.9402  138.8966  163.0784 O.3     1  UNL1       -0.4705
     24 N         138.0595  140.1279  165.0652 N.pl3   1  UNL1       -0.2801
     25 H         137.2390  139.5909  165.1528 H       1  UNL1        0.1552
     26 C         139.0106  140.2382  166.2199 C.ar    1  UNL1        0.2219
     27 N         138.6082  139.7333  167.5739 N.ar    1  UNL1       -0.2110
     28 C         139.5592  139.8436  168.7286 C.ar    1  UNL1        0.1160
     29 C         140.9127  140.4588  168.5293 C.ar    1  UNL1        0.1082
     30 CL        141.8637  140.5692  169.6841 Cl      1  UNL1       -0.0777
     31 C         141.3151  140.9637  167.1754 C.ar    1  UNL1        0.1435
     32 N         140.3641  140.8534  166.0207 N.ar    1  UNL1       -0.1979
     33 N         142.6685  141.5789  166.9761 N.pl3   1  UNL1       -0.3181
     34 H         143.0468  142.1704  167.6662 H       1  UNL1        0.1482
     35 C         143.4456  141.2930  165.7254 C.3     1  UNL1        0.0832
     36 C         143.7186  139.9358  165.1478 C.3     1  UNL1        0.0984
     37 C         144.5278  140.1181  163.8981 C.3     1  UNL1        0.0323
     38 C         145.1683  141.1392  163.0052 C.2     1  UNL1       -0.0304
     39 C         144.8953  142.4963  163.5828 C.2     1  UNL1       -0.0294
     40 C         144.0861  142.3141  164.8325 C.3     1  UNL1        0.0404
     41 C         143.8590  140.8442  165.0274 C.3     1  UNL1        0.0109
     42 C         143.2624  138.6262  165.7197 C.2     1  UNL1        0.2208
     43 N         141.9713  138.0163  165.2604 N.am    1  UNL1       -0.3288
     44 O         144.0974  137.9266  166.7508 O.2     1  UNL1       -0.2753
     45 H         141.4232  138.4756  164.5836 H       1  UNL1        0.1449
     46 H         141.6719  137.1568  165.6357 H       1  UNL1        0.1449
@<TRIPOS>BOND
     1    22    23    1
     2    23     1    1
     3     1     2   ar
     4     2    24    1
     5    24    26    1
     6    26    27   ar
     7    27    28   ar
     8    28    29   ar
     9    29    30    1
    10    29    31   ar
    11    31    33    1
    12    35    33    1
    13    35    36    1
    14    36    42    1
    15    42    43   am
    16    42    44    2
    17    36    37    1
    18    37    38    1
    19    38    39    2
    20    40    39    1
    21    40    41    1
    22    31    32   ar
    23     2     3   ar
    24     3     4   ar
    25     4     5   ar
    26     5     6   ar
    27     6     7    1
    28     7     8    1
    29     8     9    1
    30     9    10    1
    31    10    12    1
    32    12    13    1
    33    13    14    1
    34    14    15    1
    35    15    18    1
    36    18    19    1
    37    19    20    1
    38    15    16    1
    39    16    17    1
    40    10    11    1
    41     6     1   ar
    42    17    12    1
    43    32    26   ar
    44    11     5    1
    45    40    35    1
    46    41    37    1
    47    24    25    1
    48    33    34    1
    49    43    45    1
    50    43    46    1
    51    20    21    1
@<TRIPOS>MOLECULE
*****
 46 51 0 0 0
SMALL
GASTEIGER

@<TRIPOS>ATOM
      1 C         138.6488  139.1492  163.6046 C.ar    1  UNL1        0.1477
      2 C         138.2638  140.0415  164.7473 C.ar    1  UNL1        0.0846
      3 C         137.9358  141.4834  164.4954 C.ar    1  UNL1        0.0174
      4 C         137.9928  142.0330  163.1008 C.ar    1  UNL1       -0.0031
      5 C         138.3778  141.1406  161.9582 C.ar    1  UNL1       -0.0218
      6 C         138.7057  139.6988  162.2102 C.ar    1  UNL1        0.0091
      7 C         139.1098  138.6450  161.2220 C.3     1  UNL1        0.0292
      8 C         139.2856  138.7729  159.7377 C.3     1  UNL1        0.0062
      9 C         139.1008  139.9861  158.8753 C.3     1  UNL1        0.0166
     10 C         138.6946  141.3710  159.2838 C.3     1  UNL1        0.0619
     11 C         138.3728  141.8849  160.6558 C.3     1  UNL1        0.0421
     12 N         138.5972  142.3749  158.1736 N.3     1  UNL1       -0.2713
     13 C         137.4714  142.2938  157.1856 C.3     1  UNL1        0.0896
     14 C         137.3741  143.2978  156.0753 C.3     1  UNL1        0.0897
     15 N         138.4026  144.3827  155.9529 N.3     1  UNL1       -0.2682
     16 C         139.5284  144.4638  156.9408 C.3     1  UNL1        0.0897
     17 C         139.6257  143.4599  158.0511 C.3     1  UNL1        0.0896
     18 C         138.3052  145.3866  154.8427 C.3     1  UNL1        0.1043
     19 C         138.7075  146.8116  155.0826 C.3     1  UNL1        0.1544
     20 O         139.3432  147.6071  153.9812 O.3     1  UNL1       -0.3805
     21 H         140.2098  147.2276  153.7670 H       1  UNL1        0.2105
     22 C         140.3423  137.3229  164.3437 C.3     1  UNL1        0.2525
     23 O         138.9768  137.7074  163.8566 O.3     1  UNL1       -0.4705
     24 N         138.2068  139.4921  166.1418 N.pl3   1  UNL1       -0.2801
     25 H         137.4478  138.9294  166.4186 H       1  UNL1        0.1552
     26 C         139.3062  139.8000  167.1147 C.ar    1  UNL1        0.2219
     27 N         139.0502  139.7071  168.5899 N.ar    1  UNL1       -0.2110
     28 C         140.1495  140.0150  169.5627 C.ar    1  UNL1        0.1160
     29 C         141.5050  140.4158  169.0605 C.ar    1  UNL1        0.1082
     30 CL        142.6044  140.7237  170.0334 Cl      1  UNL1       -0.0777
     31 C         141.7611  140.5086  167.5854 C.ar    1  UNL1        0.1435
     32 N         140.6617  140.2007  166.6125 N.ar    1  UNL1       -0.1979
     33 N         143.1165  140.9094  167.0832 N.pl3   1  UNL1       -0.3181
     34 H         143.9153  140.7391  167.6329 H       1  UNL1        0.1482
     35 C         143.2549  141.5695  165.7435 C.3     1  UNL1        0.0832
     36 C         143.6887  140.9020  164.4722 C.3     1  UNL1        0.0984
     37 C         143.6858  141.9331  163.3828 C.3     1  UNL1        0.0323
     38 C         143.4146  143.3768  163.0791 C.2     1  UNL1       -0.0304
     39 C         142.9808  144.0443  164.3504 C.2     1  UNL1       -0.0294
     40 C         142.9838  143.0132  165.4398 C.3     1  UNL1        0.0404
     41 C         143.4195  141.7084  164.8417 C.3     1  UNL1        0.0109
     42 C         144.0603  139.4570  164.3175 C.2     1  UNL1        0.2208
     43 N         144.7917  138.9978  163.0910 N.am    1  UNL1       -0.3288
     44 O         143.7005  138.4711  165.3892 O.2     1  UNL1       -0.2753
     45 H         145.0279  139.6449  162.3875 H       1  UNL1        0.1449
     46 H         145.0356  138.0495  162.9894 H       1  UNL1        0.1449
@<TRIPOS>BOND
     1    22    23    1
     2    23     1    1
     3     1     2   ar
     4     2    24    1
     5    24    26    1
     6    26    27   ar
     7    27    28   ar
     8    28    29   ar
     9    29    30    1
    10    29    31   ar
    11    31    33    1
    12    35    33    1
    13    35    36    1
    14    36    42    1
    15    42    43   am
    16    42    44    2
    17    36    37    1
    18    37    38    1
    19    38    39    2
    20    40    39    1
    21    40    41    1
    22    31    32   ar
    23     2     3   ar
    24     3     4   ar
    25     4     5   ar
    26     5     6   ar
    27     6     7    1
    28     7     8    1
    29     8     9    1
    30     9    10    1
    31    10    12    1
    32    12    13    1
    33    13    14    1
    34    14    15    1
    35    15    18    1
    36    18    19    1
    37    19    20    1
    38    15    16    1
    39    16    17    1
    40    10    11    1
    41     6     1   ar
    42    17    12    1
    43    32    26   ar
    44    11     5    1
    45    40    35    1
    46    41    37    1
    47    24    25    1
    48    33    34    1
    49    43    45    1
    50    43    46    1
    51    20    21    1
@<TRIPOS>MOLECULE
*****
 46 51 0 0 0
SMALL
GASTEIGER

@<TRIPOS>ATOM
      1 C         143.6477  140.9708  160.0750 C.ar    1  UNL1        0.1477
      2 C         143.6221  140.6848  161.5472 C.ar    1  UNL1        0.0846
      3 C         143.3710  139.2889  162.0358 C.ar    1  UNL1        0.0174
      4 C         143.1457  138.1791  161.0521 C.ar    1  UNL1       -0.0031
      5 C         143.1713  138.4653  159.5798 C.ar    1  UNL1       -0.0218
      6 C         143.4223  139.8610  159.0914 C.ar    1  UNL1        0.0091
      7 C         143.4887  140.3595  157.6781 C.3     1  UNL1        0.0292
      8 C         143.3204  139.5852  156.4044 C.3     1  UNL1        0.0062
      9 C         143.0442  138.1214  156.2294 C.3     1  UNL1        0.0166
     10 C         142.8680  137.0701  157.2848 C.3     1  UNL1        0.0619
     11 C         142.9246  137.2231  158.7759 C.3     1  UNL1        0.0421
     12 N         142.5999  135.6824  156.7827 N.3     1  UNL1       -0.2713
     13 C         141.6120  135.4632  155.6754 C.3     1  UNL1        0.0896
     14 C         141.3438  134.0753  155.1733 C.3     1  UNL1        0.0897
     15 N         142.0636  132.9067  155.7785 N.3     1  UNL1       -0.2682
     16 C         143.0515  133.1258  156.8857 C.3     1  UNL1        0.0897
     17 C         143.3197  134.5137  157.3878 C.3     1  UNL1        0.0896
     18 C         141.7954  131.5189  155.2764 C.3     1  UNL1        0.1043
     19 C         140.5909  131.2494  154.4239 C.3     1  UNL1        0.1544
     20 O         139.5334  130.2978  154.8993 O.3     1  UNL1       -0.3805
     21 H         139.9024  129.4020  154.9468 H       1  UNL1        0.2105
     22 C         142.7594  143.3345  159.4636 C.3     1  UNL1        0.2525
     23 O         143.8987  142.3666  159.5864 O.3     1  UNL1       -0.4705
     24 N         143.8474  141.7945  162.5310 N.pl3   1  UNL1       -0.2801
     25 H         144.7603  142.0081  162.8314 H       1  UNL1        0.1552
     26 C         142.6819  142.5786  163.0569 C.ar    1  UNL1        0.2219
     27 N         142.8640  144.0106  163.4649 N.ar    1  UNL1       -0.2110
     28 C         141.6986  144.7947  163.9909 C.ar    1  UNL1        0.1160
     29 C         140.3508  144.1469  164.1089 C.ar    1  UNL1        0.1082
     30 CL        139.1852  144.9310  164.6349 Cl      1  UNL1       -0.0777
     31 C         140.1685  142.7149  163.7009 C.ar    1  UNL1        0.1435
     32 N         141.3341  141.9308  163.1750 N.ar    1  UNL1       -0.1979
     33 N         138.8208  142.0671  163.8189 N.pl3   1  UNL1       -0.3181
     34 H         138.0116  142.5633  163.5579 H       1  UNL1        0.1482
     35 C         138.7060  140.6633  164.3347 C.3     1  UNL1        0.0832
     36 C         138.5819  139.4242  163.4985 C.3     1  UNL1        0.0984
     37 C         138.4943  138.2471  164.4242 C.3     1  UNL1        0.0323
     38 C         138.4834  137.8359  165.8667 C.2     1  UNL1       -0.0304
     39 C         138.6075  139.0751  166.7028 C.2     1  UNL1       -0.0294
     40 C         138.6951  140.2521  165.7772 C.3     1  UNL1        0.0404
     41 C         138.6251  139.7404  164.3688 C.3     1  UNL1        0.0109
     42 C         138.5509  139.3714  161.9997 C.2     1  UNL1        0.2208
     43 N         137.2425  139.4699  161.2727 N.am    1  UNL1       -0.3288
     44 O         139.8282  139.2200  161.2280 O.2     1  UNL1       -0.2753
     45 H         136.4042  139.5692  161.7793 H       1  UNL1        0.1449
     46 H         137.2221  139.4352  160.2890 H       1  UNL1        0.1449
@<TRIPOS>BOND
     1    22    23    1
     2    23     1    1
     3     1     2   ar
     4     2    24    1
     5    24    26    1
     6    26    27   ar
     7    27    28   ar
     8    28    29   ar
     9    29    30    1
    10    29    31   ar
    11    31    33    1
    12    35    33    1
    13    35    36    1
    14    36    42    1
    15    42    43   am
    16    42    44    2
    17    36    37    1
    18    37    38    1
    19    38    39    2
    20    40    39    1
    21    40    41    1
    22    31    32   ar
    23     2     3   ar
    24     3     4   ar
    25     4     5   ar
    26     5     6   ar
    27     6     7    1
    28     7     8    1
    29     8     9    1
    30     9    10    1
    31    10    12    1
    32    12    13    1
    33    13    14    1
    34    14    15    1
    35    15    18    1
    36    18    19    1
    37    19    20    1
    38    15    16    1
    39    16    17    1
    40    10    11    1
    41     6     1   ar
    42    17    12    1
    43    32    26   ar
    44    11     5    1
    45    40    35    1
    46    41    37    1
    47    24    25    1
    48    33    34    1
    49    43    45    1
    50    43    46    1
    51    20    21    1
