@<TRIPOS>MOLECULE
*****
 42 45 0 0 0
SMALL
GASTEIGER

@<TRIPOS>ATOM
      1 C         142.2894  137.3484  157.0692 C.ar    1  UNL1        0.1318
      2 C         141.0504  137.6057  157.8745 C.ar    1  UNL1        0.0388
      3 C         140.8921  138.9011  158.6140 C.ar    1  UNL1        0.0576
      4 C         141.9730  139.9392  158.5482 C.ar    1  UNL1        0.0222
      5 C         141.8147  141.2346  159.2877 C.ar    1  UNL1        0.0016
      6 C         142.8955  142.2726  159.2219 C.ar    1  UNL1        0.0001
      7 C         144.1345  142.0152  158.4166 C.ar    1  UNL1        0.0015
      8 C         144.2928  140.7199  157.6771 C.ar    1  UNL1        0.0191
      9 C         143.2120  139.6818  157.7429 C.ar    1  UNL1        0.0828
     10 N         143.3702  138.3864  157.0034 N.ar    1  UNL1       -0.2307
     11 C         142.7640  133.4621  154.8507 C.3     1  UNL1        0.0048
     12 C         141.6166  134.3735  154.5300 C.3     1  UNL1        0.0216
     13 C         141.4584  135.6689  155.2695 C.3     1  UNL1        0.0922
     14 N         142.4476  136.0529  156.3297 N.pl3   1  UNL1       -0.2932
     15 C         143.5950  135.1416  156.6503 C.3     1  UNL1        0.0922
     16 C         143.7532  133.8462  155.9108 C.3     1  UNL1        0.0216
     17 C         142.9222  132.1667  154.1112 C.3     1  UNL1        0.0174
     18 C         143.6715  131.0302  154.7411 C.3     1  UNL1        0.0722
     19 C         141.8810  129.2750  155.4216 C.3     1  UNL1        0.0897
     20 N         143.0118  130.1880  155.7925 N.3     1  UNL1       -0.2703
     21 C         143.4828  130.2590  157.2148 C.3     1  UNL1        0.0897
     22 C         139.6531  139.1585  159.4193 C.2     1  UNL1        0.2460
     23 O         138.4213  139.6927  158.7503 O.2     1  UNL1       -0.2701
     24 N         139.6458  138.8817  160.8935 N.am    1  UNL1       -0.3009
     25 H         140.4542  138.5312  161.3325 H       1  UNL1        0.1497
     26 C         138.4067  139.1391  161.6988 C.3     1  UNL1        0.0896
     27 C         138.4788  139.1702  163.1968 C.3     1  UNL1        0.0196
     28 C         138.1753  140.4395  163.9361 C.3     1  UNL1        0.0017
     29 C         138.2474  140.4706  165.4340 C.3     1  UNL1        0.0018
     30 C         138.6231  139.2323  166.1926 C.3     1  UNL1        0.0197
     31 C         138.9267  137.9630  165.4533 C.3     1  UNL1        0.0018
     32 C         138.8545  137.9319  163.9554 C.3     1  UNL1        0.0017
     33 C         138.6952  139.2634  167.6906 C.3     1  UNL1        0.0926
     34 N         139.2623  140.4634  168.3894 N.am    1  UNL1       -0.2707
     35 C         139.0534  140.6407  169.8642 C.2     1  UNL1        0.4014
     36 O         138.2775  139.6180  170.6401 O.2     1  UNL1       -0.2264
     37 H         139.7715  141.1346  167.8802 H       1  UNL1        0.1527
     38 O         139.6205  141.8407  170.5631 O.3     1  UNL1       -0.4419
     39 C         141.0117  142.3045  170.2477 C.3     1  UNL1        0.1378
     40 C         140.4522  143.5098  169.5519 C.3     1  UNL1        0.0437
     41 C         141.5712  141.0992  170.9436 C.3     1  UNL1        0.0437
     42 C         142.4029  142.7683  169.9323 C.3     1  UNL1        0.0437
@<TRIPOS>BOND
     1    19    20    1
     2    20    21    1
     3    20    18    1
     4    18    17    1
     5    17    11    1
     6    11    12    1
     7    12    13    1
     8    13    14    1
     9    14     1    1
    10     1     2   ar
    11     2     3   ar
    12     3    22    1
    13    22    23    2
    14    22    24   am
    15    24    26    1
    16    27    26    1
    17    27    28    1
    18    28    29    1
    19    29    30    1
    20    30    33    1
    21    33    34    1
    22    34    35   am
    23    35    36    2
    24    35    38    1
    25    38    39    1
    26    39    40    1
    27    39    41    1
    28    39    42    1
    29    30    31    1
    30    31    32    1
    31     3     4   ar
    32     4     5   ar
    33     5     6   ar
    34     6     7   ar
    35     7     8   ar
    36     8     9   ar
    37     9    10   ar
    38    14    15    1
    39    15    16    1
    40    16    11    1
    41    10     1   ar
    42    32    27    1
    43     9     4   ar
    44    24    25    1
    45    34    37    1
@<TRIPOS>MOLECULE
*****
 42 45 0 0 0
SMALL
GASTEIGER

@<TRIPOS>ATOM
      1 C         143.2938  142.6163  158.5758 C.ar    1  UNL1        0.1318
      2 C         142.7735  141.4333  159.3373 C.ar    1  UNL1        0.0388
      3 C         141.6869  141.6153  160.3551 C.ar    1  UNL1        0.0576
      4 C         141.1203  142.9804  160.6114 C.ar    1  UNL1        0.0222
      5 C         140.0337  143.1625  161.6292 C.ar    1  UNL1        0.0016
      6 C         139.4672  144.5275  161.8855 C.ar    1  UNL1        0.0001
      7 C         139.9875  145.7105  161.1240 C.ar    1  UNL1        0.0015
      8 C         141.0741  145.5285  160.1062 C.ar    1  UNL1        0.0191
      9 C         141.6406  144.1634  159.8499 C.ar    1  UNL1        0.0828
     10 N         142.7273  143.9813  158.8321 N.ar    1  UNL1       -0.2307
     11 C         146.5540  142.0700  155.5225 C.3     1  UNL1        0.0048
     12 C         146.8988  142.4873  156.9214 C.3     1  UNL1        0.0216
     13 C         145.8121  142.6694  157.9391 C.3     1  UNL1        0.0922
     14 N         144.3805  142.4341  157.5580 N.pl3   1  UNL1       -0.2932
     15 C         144.0357  142.0168  156.1591 C.3     1  UNL1        0.0922
     16 C         145.1224  141.8347  155.1414 C.3     1  UNL1        0.0216
     17 C         147.6407  141.8878  154.5047 C.3     1  UNL1        0.0174
     18 C         149.0692  141.7674  154.9462 C.3     1  UNL1        0.0722
     19 C         150.2284  143.1604  153.0845 C.3     1  UNL1        0.0897
     20 N         150.1786  141.9370  153.9510 N.3     1  UNL1       -0.2703
     21 C         151.2382  140.8831  153.8223 C.3     1  UNL1        0.0897
     22 C         141.1666  140.4323  161.1166 C.2     1  UNL1        0.2460
     23 O         142.0748  139.6772  162.0412 O.2     1  UNL1       -0.2701
     24 N         139.7382  140.0045  160.9534 N.am    1  UNL1       -0.3009
     25 H         139.1422  140.5001  160.3465 H       1  UNL1        0.1497
     26 C         139.2180  138.8215  161.7149 C.3     1  UNL1        0.0896
     27 C         138.9995  138.9198  163.1957 C.3     1  UNL1        0.0196
     28 C         139.0279  137.6816  164.0418 C.3     1  UNL1        0.0017
     29 C         138.8095  137.7799  165.5226 C.3     1  UNL1        0.0018
     30 C         138.5626  139.1164  166.1571 C.3     1  UNL1        0.0197
     31 C         138.5342  140.3547  165.3110 C.3     1  UNL1        0.0018
     32 C         138.7527  140.2563  163.8303 C.3     1  UNL1        0.0017
     33 C         138.3441  139.2147  167.6379 C.3     1  UNL1        0.0926
     34 N         139.1885  140.1421  168.4607 N.am    1  UNL1       -0.2707
     35 C         138.8679  140.3617  169.9095 C.2     1  UNL1        0.4014
     36 O         137.7029  139.6539  170.5354 O.2     1  UNL1       -0.2264
     37 H         139.9532  140.6066  168.0499 H       1  UNL1        0.1527
     38 O         139.7123  141.2890  170.7323 O.3     1  UNL1       -0.4419
     39 C         140.9965  141.8276  170.1748 C.3     1  UNL1        0.1378
     40 C         141.7106  140.5860  170.6204 C.3     1  UNL1        0.0437
     41 C         140.2824  143.0691  169.7292 C.3     1  UNL1        0.0437
     42 C         142.2807  142.3661  169.6173 C.3     1  UNL1        0.0437
@<TRIPOS>BOND
     1    19    20    1
     2    20    21    1
     3    20    18    1
     4    18    17    1
     5    17    11    1
     6    11    12    1
     7    12    13    1
     8    13    14    1
     9    14     1    1
    10     1     2   ar
    11     2     3   ar
    12     3    22    1
    13    22    23    2
    14    22    24   am
    15    24    26    1
    16    27    26    1
    17    27    28    1
    18    28    29    1
    19    29    30    1
    20    30    33    1
    21    33    34    1
    22    34    35   am
    23    35    36    2
    24    35    38    1
    25    38    39    1
    26    39    40    1
    27    39    41    1
    28    39    42    1
    29    30    31    1
    30    31    32    1
    31     3     4   ar
    32     4     5   ar
    33     5     6   ar
    34     6     7   ar
    35     7     8   ar
    36     8     9   ar
    37     9    10   ar
    38    14    15    1
    39    15    16    1
    40    16    11    1
    41    10     1   ar
    42    32    27    1
    43     9     4   ar
    44    24    25    1
    45    34    37    1
@<TRIPOS>MOLECULE
*****
 42 45 0 0 0
SMALL
GASTEIGER

@<TRIPOS>ATOM
      1 C         139.8129  137.5912  155.6530 C.ar    1  UNL1        0.1318
      2 C         140.6667  138.1120  156.7710 C.ar    1  UNL1        0.0388
      3 C         141.8955  137.3602  157.1891 C.ar    1  UNL1        0.0576
      4 C         142.2705  136.0875  156.4892 C.ar    1  UNL1        0.0222
      5 C         143.4993  135.3357  156.9074 C.ar    1  UNL1        0.0016
      6 C         143.8743  134.0631  156.2075 C.ar    1  UNL1        0.0001
      7 C         143.0206  133.5423  155.0895 C.ar    1  UNL1        0.0015
      8 C         141.7918  134.2941  154.6714 C.ar    1  UNL1        0.0191
      9 C         141.4168  135.5667  155.3713 C.ar    1  UNL1        0.0828
     10 N         140.1880  136.3186  154.9531 N.ar    1  UNL1       -0.2307
     11 C         136.1266  139.8468  154.3987 C.3     1  UNL1        0.0048
     12 C         137.1698  140.5224  155.2385 C.3     1  UNL1        0.0216
     13 C         138.3985  139.7705  155.6566 C.3     1  UNL1        0.0922
     14 N         138.5841  138.3430  155.2348 N.pl3   1  UNL1       -0.2932
     15 C         137.5410  137.6674  154.3950 C.3     1  UNL1        0.0922
     16 C         136.3122  138.4193  153.9770 C.3     1  UNL1        0.0216
     17 C         134.8978  140.5986  153.9806 C.3     1  UNL1        0.0174
     18 C         134.1590  141.4418  154.9772 C.3     1  UNL1        0.0722
     19 C         133.3771  139.7835  156.8181 C.3     1  UNL1        0.0897
     20 N         133.0597  140.8392  155.8008 N.3     1  UNL1       -0.2703
     21 C         131.6430  141.2923  155.6072 C.3     1  UNL1        0.0897
     22 C         142.7492  137.8810  158.3071 C.2     1  UNL1        0.2460
     23 O         143.7007  139.0138  158.0591 O.2     1  UNL1       -0.2701
     24 N         142.6515  137.2690  159.6730 N.am    1  UNL1       -0.3009
     25 H         142.0271  136.5255  159.8358 H       1  UNL1        0.1497
     26 C         143.5053  137.7898  160.7910 C.3     1  UNL1        0.0896
     27 C         142.8681  138.4648  161.9694 C.3     1  UNL1        0.0196
     28 C         141.8709  137.7235  162.8096 C.3     1  UNL1        0.0017
     29 C         141.2339  138.3985  163.9879 C.3     1  UNL1        0.0018
     30 C         141.5940  139.8148  164.3260 C.3     1  UNL1        0.0197
     31 C         142.5911  140.5562  163.4858 C.3     1  UNL1        0.0018
     32 C         143.2282  139.8811  162.3075 C.3     1  UNL1        0.0017
     33 C         140.9568  140.4898  165.5044 C.3     1  UNL1        0.0926
     34 N         140.0530  141.6685  165.2952 N.am    1  UNL1       -0.2707
     35 C         138.6108  141.4544  164.9426 C.2     1  UNL1        0.4014
     36 O         138.0726  140.0616  164.7991 O.2     1  UNL1       -0.2264
     37 H         140.4062  142.5826  165.3894 H       1  UNL1        0.1527
     38 O         137.7069  142.6330  164.7334 O.3     1  UNL1       -0.4419
     39 C         138.1233  143.7441  163.8158 C.3     1  UNL1        0.1378
     40 C         137.8572  142.8646  162.6302 C.3     1  UNL1        0.0437
     41 C         138.3895  144.6235  165.0014 C.3     1  UNL1        0.0437
     42 C         138.5398  144.8552  162.8981 C.3     1  UNL1        0.0437
@<TRIPOS>BOND
     1    19    20    1
     2    20    21    1
     3    20    18    1
     4    18    17    1
     5    17    11    1
     6    11    12    1
     7    12    13    1
     8    13    14    1
     9    14     1    1
    10     1     2   ar
    11     2     3   ar
    12     3    22    1
    13    22    23    2
    14    22    24   am
    15    24    26    1
    16    27    26    1
    17    27    28    1
    18    28    29    1
    19    29    30    1
    20    30    33    1
    21    33    34    1
    22    34    35   am
    23    35    36    2
    24    35    38    1
    25    38    39    1
    26    39    40    1
    27    39    41    1
    28    39    42    1
    29    30    31    1
    30    31    32    1
    31     3     4   ar
    32     4     5   ar
    33     5     6   ar
    34     6     7   ar
    35     7     8   ar
    36     8     9   ar
    37     9    10   ar
    38    14    15    1
    39    15    16    1
    40    16    11    1
    41    10     1   ar
    42    32    27    1
    43     9     4   ar
    44    24    25    1
    45    34    37    1
@<TRIPOS>MOLECULE
*****
 42 45 0 0 0
SMALL
GASTEIGER

@<TRIPOS>ATOM
      1 C         141.9823  136.5141  156.6637 C.ar    1  UNL1        0.1318
      2 C         142.5996  136.7752  158.0056 C.ar    1  UNL1        0.0388
      3 C         142.2759  138.0382  158.7471 C.ar    1  UNL1        0.0576
      4 C         141.3348  139.0403  158.1466 C.ar    1  UNL1        0.0222
      5 C         141.0111  140.3033  158.8881 C.ar    1  UNL1        0.0016
      6 C         140.0701  141.3053  158.2877 C.ar    1  UNL1        0.0001
      7 C         139.4529  141.0442  156.9457 C.ar    1  UNL1        0.0015
      8 C         139.7766  139.7811  156.2042 C.ar    1  UNL1        0.0191
      9 C         140.7176  138.7792  156.8047 C.ar    1  UNL1        0.0828
     10 N         141.0413  137.5160  156.0632 N.ar    1  UNL1       -0.2307
     11 C         142.9536  132.7247  154.4394 C.3     1  UNL1        0.0048
     12 C         143.5220  132.9578  155.8078 C.3     1  UNL1        0.0216
     13 C         143.1982  134.2209  156.5492 C.3     1  UNL1        0.0922
     14 N         142.3061  135.2509  155.9222 N.pl3   1  UNL1       -0.2932
     15 C         141.7378  135.0179  154.5537 C.3     1  UNL1        0.0922
     16 C         142.0616  133.7548  153.8123 C.3     1  UNL1        0.0216
     17 C         143.2774  131.4616  153.6979 C.3     1  UNL1        0.0174
     18 C         142.2078  130.4377  153.4578 C.3     1  UNL1        0.0722
     19 C         139.9027  130.0987  154.6074 C.3     1  UNL1        0.0897
     20 N         141.3922  129.9218  154.6061 N.3     1  UNL1       -0.2703
     21 C         142.0662  129.2289  155.7531 C.3     1  UNL1        0.0897
     22 C         142.8931  138.2993  160.0890 C.2     1  UNL1        0.2460
     23 O         144.1651  139.0881  160.1888 O.2     1  UNL1       -0.2701
     24 N         142.2385  137.7716  161.3312 N.am    1  UNL1       -0.3009
     25 H         141.4037  137.2539  161.2657 H       1  UNL1        0.1497
     26 C         142.8557  138.0327  162.6731 C.3     1  UNL1        0.0896
     27 C         141.9938  138.4559  163.8256 C.3     1  UNL1        0.0196
     28 C         142.6184  138.7775  165.1508 C.3     1  UNL1        0.0017
     29 C         141.7565  139.2007  166.3032 C.3     1  UNL1        0.0018
     30 C         140.2700  139.3022  166.1303 C.3     1  UNL1        0.0197
     31 C         139.6454  138.9806  164.8050 C.3     1  UNL1        0.0018
     32 C         140.5073  138.5575  163.6527 C.3     1  UNL1        0.0017
     33 C         139.4080  139.7254  167.2828 C.3     1  UNL1        0.0926
     34 N         139.9458  140.6738  168.3130 N.am    1  UNL1       -0.2707
     35 C         139.3408  140.7127  169.6849 C.2     1  UNL1        0.4014
     36 O         138.1979  139.8033  170.0267 O.2     1  UNL1       -0.2264
     37 H         140.6959  141.2706  168.0886 H       1  UNL1        0.1527
     38 O         139.8786  141.6611  170.7152 O.3     1  UNL1       -0.4419
     39 C         141.1849  142.3602  170.4817 C.3     1  UNL1        0.1378
     40 C         140.4531  143.5342  169.9020 C.3     1  UNL1        0.0437
     41 C         141.9168  141.1862  171.0614 C.3     1  UNL1        0.0437
     42 C         142.4914  143.0594  170.2482 C.3     1  UNL1        0.0437
@<TRIPOS>BOND
     1    19    20    1
     2    20    21    1
     3    20    18    1
     4    18    17    1
     5    17    11    1
     6    11    12    1
     7    12    13    1
     8    13    14    1
     9    14     1    1
    10     1     2   ar
    11     2     3   ar
    12     3    22    1
    13    22    23    2
    14    22    24   am
    15    24    26    1
    16    27    26    1
    17    27    28    1
    18    28    29    1
    19    29    30    1
    20    30    33    1
    21    33    34    1
    22    34    35   am
    23    35    36    2
    24    35    38    1
    25    38    39    1
    26    39    40    1
    27    39    41    1
    28    39    42    1
    29    30    31    1
    30    31    32    1
    31     3     4   ar
    32     4     5   ar
    33     5     6   ar
    34     6     7   ar
    35     7     8   ar
    36     8     9   ar
    37     9    10   ar
    38    14    15    1
    39    15    16    1
    40    16    11    1
    41    10     1   ar
    42    32    27    1
    43     9     4   ar
    44    24    25    1
    45    34    37    1
@<TRIPOS>MOLECULE
*****
 42 45 0 0 0
SMALL
GASTEIGER

@<TRIPOS>ATOM
      1 C         141.9311  142.4082  164.0941 C.ar    1  UNL1        0.1318
      2 C         142.7633  142.0290  162.9051 C.ar    1  UNL1        0.0388
      3 C         142.6045  142.7710  161.6112 C.ar    1  UNL1        0.0576
      4 C         141.6136  143.8922  161.5062 C.ar    1  UNL1        0.0222
      5 C         141.4548  144.6342  160.2123 C.ar    1  UNL1        0.0016
      6 C         140.4639  145.7553  160.1074 C.ar    1  UNL1        0.0001
      7 C         139.6318  146.1345  161.2964 C.ar    1  UNL1        0.0015
      8 C         139.7905  145.3926  162.5903 C.ar    1  UNL1        0.0191
      9 C         140.7814  144.2714  162.6952 C.ar    1  UNL1        0.0828
     10 N         140.9402  143.5294  163.9892 N.ar    1  UNL1       -0.2307
     11 C         142.4075  140.1823  167.9759 C.3     1  UNL1        0.0048
     12 C         142.8753  141.6030  167.8638 C.3     1  UNL1        0.0216
     13 C         142.7165  142.3450  166.5698 C.3     1  UNL1        0.0922
     14 N         142.0899  141.6662  165.3881 N.pl3   1  UNL1       -0.2932
     15 C         141.6221  140.2454  165.5002 C.3     1  UNL1        0.0922
     16 C         141.7809  139.5035  166.7941 C.3     1  UNL1        0.0216
     17 C         142.5663  139.4403  169.2698 C.3     1  UNL1        0.0174
     18 C         141.4289  139.3832  170.2461 C.3     1  UNL1        0.0722
     19 C         141.0426  141.8012  171.1144 C.3     1  UNL1        0.0897
     20 N         140.5317  140.5722  170.4227 N.3     1  UNL1       -0.2703
     21 C         139.1235  140.5322  169.9075 C.3     1  UNL1        0.0897
     22 C         143.4367  142.3918  160.4222 C.2     1  UNL1        0.2460
     23 O         144.8652  142.8405  160.3327 O.2     1  UNL1       -0.2701
     24 N         142.8404  141.5639  159.3227 N.am    1  UNL1       -0.3009
     25 H         141.9028  141.2693  159.3814 H       1  UNL1        0.1497
     26 C         143.6725  141.1846  158.1337 C.3     1  UNL1        0.0896
     27 C         143.5159  139.8293  157.5102 C.3     1  UNL1        0.0196
     28 C         142.8420  138.7268  158.2717 C.3     1  UNL1        0.0017
     29 C         142.6854  137.3715  157.6482 C.3     1  UNL1        0.0018
     30 C         143.2028  137.1189  156.2631 C.3     1  UNL1        0.0197
     31 C         143.8767  138.2215  155.5015 C.3     1  UNL1        0.0018
     32 C         144.0333  139.5767  156.1251 C.3     1  UNL1        0.0017
     33 C         143.0462  135.7636  155.6396 C.3     1  UNL1        0.0926
     34 N         144.1607  134.7637  155.7287 N.am    1  UNL1       -0.2707
     35 C         143.8489  133.3063  155.8978 C.2     1  UNL1        0.4014
     36 O         142.4227  132.8488  155.9777 O.2     1  UNL1       -0.2264
     37 H         145.0968  135.0640  155.6762 H       1  UNL1        0.1527
     38 O         144.9635  132.3063  155.9869 O.3     1  UNL1       -0.4419
     39 C         144.9513  131.2638  157.0654 C.3     1  UNL1        0.1378
     40 C         144.6093  130.2157  156.0483 C.3     1  UNL1        0.0437
     41 C         145.2932  132.3119  158.0824 C.3     1  UNL1        0.0437
     42 C         144.9391  130.2212  158.1438 C.3     1  UNL1        0.0437
@<TRIPOS>BOND
     1    19    20    1
     2    20    21    1
     3    20    18    1
     4    18    17    1
     5    17    11    1
     6    11    12    1
     7    12    13    1
     8    13    14    1
     9    14     1    1
    10     1     2   ar
    11     2     3   ar
    12     3    22    1
    13    22    23    2
    14    22    24   am
    15    24    26    1
    16    27    26    1
    17    27    28    1
    18    28    29    1
    19    29    30    1
    20    30    33    1
    21    33    34    1
    22    34    35   am
    23    35    36    2
    24    35    38    1
    25    38    39    1
    26    39    40    1
    27    39    41    1
    28    39    42    1
    29    30    31    1
    30    31    32    1
    31     3     4   ar
    32     4     5   ar
    33     5     6   ar
    34     6     7   ar
    35     7     8   ar
    36     8     9   ar
    37     9    10   ar
    38    14    15    1
    39    15    16    1
    40    16    11    1
    41    10     1   ar
    42    32    27    1
    43     9     4   ar
    44    24    25    1
    45    34    37    1
@<TRIPOS>MOLECULE
*****
 42 45 0 0 0
SMALL
GASTEIGER

@<TRIPOS>ATOM
      1 C         139.9751  145.5390  156.9834 C.ar    1  UNL1        0.1318
      2 C         140.1564  145.8669  158.4358 C.ar    1  UNL1        0.0388
      3 C         140.2265  144.7645  159.4506 C.ar    1  UNL1        0.0576
      4 C         140.1154  143.3340  159.0129 C.ar    1  UNL1        0.0222
      5 C         140.1856  142.2316  160.0276 C.ar    1  UNL1        0.0016
      6 C         140.0745  140.8013  159.5898 C.ar    1  UNL1        0.0001
      7 C         139.8932  140.4733  158.1374 C.ar    1  UNL1        0.0015
      8 C         139.8231  141.5757  157.1227 C.ar    1  UNL1        0.0191
      9 C         139.9342  143.0061  157.5604 C.ar    1  UNL1        0.0828
     10 N         139.8640  144.1086  156.5457 N.ar    1  UNL1       -0.2307
     11 C         139.7646  148.8465  153.9394 C.3     1  UNL1        0.0048
     12 C         139.0033  148.9623  155.2265 C.3     1  UNL1        0.0216
     13 C         139.0734  147.8598  156.2412 C.3     1  UNL1        0.0922
     14 N         139.9050  146.6415  155.9687 N.pl3   1  UNL1       -0.2932
     15 C         140.6663  146.5257  154.6815 C.3     1  UNL1        0.0922
     16 C         140.5962  147.6282  153.6668 C.3     1  UNL1        0.0216
     17 C         139.6945  149.9490  152.9246 C.3     1  UNL1        0.0174
     18 C         139.3321  151.3402  153.3526 C.3     1  UNL1        0.0722
     19 C         140.0562  153.8151  153.6691 C.3     1  UNL1        0.0897
     20 N         140.4087  152.3600  153.5779 N.3     1  UNL1       -0.2703
     21 C         141.8378  151.9247  153.7119 C.3     1  UNL1        0.0897
     22 C         140.4078  145.0925  160.9030 C.2     1  UNL1        0.2460
     23 O         139.2093  145.3260  161.7744 O.2     1  UNL1       -0.2701
     24 N         141.7874  145.1868  161.4841 N.am    1  UNL1       -0.3009
     25 H         142.5740  145.0335  160.9122 H       1  UNL1        0.1497
     26 C         141.9687  145.5148  162.9365 C.3     1  UNL1        0.0896
     27 C         142.0896  144.4111  163.9452 C.3     1  UNL1        0.0196
     28 C         143.4448  143.9354  164.3776 C.3     1  UNL1        0.0017
     29 C         143.5657  142.8317  165.3862 C.3     1  UNL1        0.0018
     30 C         142.3313  142.2038  165.9624 C.3     1  UNL1        0.0197
     31 C         140.9761  142.6796  165.5301 C.3     1  UNL1        0.0018
     32 C         140.8552  143.7832  164.5215 C.3     1  UNL1        0.0017
     33 C         142.4522  141.1001  166.9711 C.3     1  UNL1        0.0926
     34 N         141.7149  139.8105  166.7637 N.am    1  UNL1       -0.2707
     35 C         141.8875  139.0451  165.4853 C.2     1  UNL1        0.4014
     36 O         142.7975  139.5695  164.4142 O.2     1  UNL1       -0.2264
     37 H         141.1177  139.4663  167.4666 H       1  UNL1        0.1527
     38 O         141.1502  137.7554  165.2778 O.3     1  UNL1       -0.4419
     39 C         140.0523  137.6746  164.2590 C.3     1  UNL1        0.1378
     40 C         141.0325  137.1678  163.2429 C.3     1  UNL1        0.0437
     41 C         139.0721  138.1815  165.2750 C.3     1  UNL1        0.0437
     42 C         138.9544  137.5939  163.2400 C.3     1  UNL1        0.0437
@<TRIPOS>BOND
     1    19    20    1
     2    20    21    1
     3    20    18    1
     4    18    17    1
     5    17    11    1
     6    11    12    1
     7    12    13    1
     8    13    14    1
     9    14     1    1
    10     1     2   ar
    11     2     3   ar
    12     3    22    1
    13    22    23    2
    14    22    24   am
    15    24    26    1
    16    27    26    1
    17    27    28    1
    18    28    29    1
    19    29    30    1
    20    30    33    1
    21    33    34    1
    22    34    35   am
    23    35    36    2
    24    35    38    1
    25    38    39    1
    26    39    40    1
    27    39    41    1
    28    39    42    1
    29    30    31    1
    30    31    32    1
    31     3     4   ar
    32     4     5   ar
    33     5     6   ar
    34     6     7   ar
    35     7     8   ar
    36     8     9   ar
    37     9    10   ar
    38    14    15    1
    39    15    16    1
    40    16    11    1
    41    10     1   ar
    42    32    27    1
    43     9     4   ar
    44    24    25    1
    45    34    37    1
@<TRIPOS>MOLECULE
*****
 42 45 0 0 0
SMALL
GASTEIGER

@<TRIPOS>ATOM
      1 C         145.3894  141.6296  156.9102 C.ar    1  UNL1        0.1318
      2 C         145.1322  142.5552  158.0622 C.ar    1  UNL1        0.0388
      3 C         144.1553  142.1674  159.1323 C.ar    1  UNL1        0.0576
      4 C         143.4354  140.8540  159.0504 C.ar    1  UNL1        0.0222
      5 C         142.4584  140.4662  160.1204 C.ar    1  UNL1        0.0016
      6 C         141.7385  139.1528  160.0385 C.ar    1  UNL1        0.0001
      7 C         141.9957  138.2272  158.8865 C.ar    1  UNL1        0.0015
      8 C         142.9726  138.6150  157.8164 C.ar    1  UNL1        0.0191
      9 C         143.6925  139.9284  157.8984 C.ar    1  UNL1        0.0828
     10 N         144.6695  140.3162  156.8282 N.ar    1  UNL1       -0.2307
     11 C         148.3203  142.7931  153.6999 C.3     1  UNL1        0.0048
     12 C         146.8556  143.0538  153.5084 C.3     1  UNL1        0.0216
     13 C         145.8787  142.6660  154.5785 C.3     1  UNL1        0.0922
     14 N         146.3664  142.0174  155.8401 N.pl3   1  UNL1       -0.2932
     15 C         147.8311  141.7567  156.0315 C.3     1  UNL1        0.0922
     16 C         148.8080  142.1446  154.9615 C.3     1  UNL1        0.0216
     17 C         149.2973  143.1809  152.6298 C.3     1  UNL1        0.0174
     18 C         150.5456  142.3746  152.4260 C.3     1  UNL1        0.0722
     19 C         152.0450  144.2968  153.3245 C.3     1  UNL1        0.0897
     20 N         151.8452  142.8438  153.0100 N.3     1  UNL1       -0.2703
     21 C         152.9449  141.8600  153.2794 C.3     1  UNL1        0.0897
     22 C         143.8982  143.0930  160.2843 C.2     1  UNL1        0.2460
     23 O         142.7847  144.0953  160.2070 O.2     1  UNL1       -0.2701
     24 N         144.7544  143.0165  161.5135 N.am    1  UNL1       -0.3009
     25 H         145.4852  142.3587  161.5641 H       1  UNL1        0.1497
     26 C         144.4973  143.9421  162.6655 C.3     1  UNL1        0.0896
     27 C         143.3987  143.6386  163.6407 C.3     1  UNL1        0.0196
     28 C         143.6784  142.7894  164.8451 C.3     1  UNL1        0.0017
     29 C         142.5798  142.4860  165.8203 C.3     1  UNL1        0.0018
     30 C         141.2015  143.0316  165.5910 C.3     1  UNL1        0.0197
     31 C         140.9218  143.8807  164.3866 C.3     1  UNL1        0.0018
     32 C         142.0204  144.1842  163.4114 C.3     1  UNL1        0.0017
     33 C         140.1029  142.7280  166.5663 C.3     1  UNL1        0.0926
     34 N         140.3990  141.9411  167.8084 N.am    1  UNL1       -0.2707
     35 C         140.4071  142.6232  169.1443 C.2     1  UNL1        0.4014
     36 O         140.1191  144.0923  169.2380 O.2     1  UNL1       -0.2264
     37 H         140.5880  140.9768  167.7469 H       1  UNL1        0.1527
     38 O         140.7031  141.8362  170.3865 O.3     1  UNL1       -0.4419
     39 C         141.7325  140.7456  170.3559 C.3     1  UNL1        0.1378
     40 C         142.8175  141.7733  170.2276 C.3     1  UNL1        0.0437
     41 C         140.6474  139.7179  170.4842 C.3     1  UNL1        0.0437
     42 C         142.7619  139.6550  170.3253 C.3     1  UNL1        0.0437
@<TRIPOS>BOND
     1    19    20    1
     2    20    21    1
     3    20    18    1
     4    18    17    1
     5    17    11    1
     6    11    12    1
     7    12    13    1
     8    13    14    1
     9    14     1    1
    10     1     2   ar
    11     2     3   ar
    12     3    22    1
    13    22    23    2
    14    22    24   am
    15    24    26    1
    16    27    26    1
    17    27    28    1
    18    28    29    1
    19    29    30    1
    20    30    33    1
    21    33    34    1
    22    34    35   am
    23    35    36    2
    24    35    38    1
    25    38    39    1
    26    39    40    1
    27    39    41    1
    28    39    42    1
    29    30    31    1
    30    31    32    1
    31     3     4   ar
    32     4     5   ar
    33     5     6   ar
    34     6     7   ar
    35     7     8   ar
    36     8     9   ar
    37     9    10   ar
    38    14    15    1
    39    15    16    1
    40    16    11    1
    41    10     1   ar
    42    32    27    1
    43     9     4   ar
    44    24    25    1
    45    34    37    1
@<TRIPOS>MOLECULE
*****
 42 45 0 0 0
SMALL
GASTEIGER

@<TRIPOS>ATOM
      1 C         138.8488  139.3583  159.6481 C.ar    1  UNL1        0.1318
      2 C         139.7011  138.4800  158.7808 C.ar    1  UNL1        0.0388
      3 C         139.7516  138.7107  157.2996 C.ar    1  UNL1        0.0576
      4 C         138.9498  139.8199  156.6855 C.ar    1  UNL1        0.0222
      5 C         139.0004  140.0506  155.2043 C.ar    1  UNL1        0.0016
      6 C         138.1986  141.1598  154.5903 C.ar    1  UNL1        0.0001
      7 C         137.3464  142.0381  155.4575 C.ar    1  UNL1        0.0015
      8 C         137.2958  141.8073  156.9388 C.ar    1  UNL1        0.0191
      9 C         138.0976  140.6982  157.5528 C.ar    1  UNL1        0.0828
     10 N         138.0471  140.4674  159.0341 N.ar    1  UNL1       -0.2307
     11 C         138.6972  138.6660  164.0919 C.3     1  UNL1        0.0048
     12 C         138.0446  139.8795  163.4993 C.3     1  UNL1        0.0216
     13 C         138.0951  140.1103  162.0180 C.3     1  UNL1        0.0922
     14 N         138.7983  139.1275  161.1294 N.pl3   1  UNL1       -0.2932
     15 C         139.4510  137.9139  161.7221 C.3     1  UNL1        0.0922
     16 C         139.4005  137.6832  163.2033 C.3     1  UNL1        0.0216
     17 C         138.6467  138.4352  165.5732 C.3     1  UNL1        0.0174
     18 C         138.7048  139.6003  166.5162 C.3     1  UNL1        0.0722
     19 C         141.2983  139.7093  166.6259 C.3     1  UNL1        0.0897
     20 N         139.9618  139.8809  167.2850 N.3     1  UNL1       -0.2703
     21 C         139.8824  140.3333  168.7130 C.3     1  UNL1        0.0897
     22 C         140.6039  137.8324  156.4323 C.2     1  UNL1        0.2460
     23 O         141.9464  138.3135  155.9672 O.2     1  UNL1       -0.2701
     24 N         140.1137  136.4730  156.0302 N.am    1  UNL1       -0.3009
     25 H         139.2326  136.1572  156.3355 H       1  UNL1        0.1497
     26 C         140.9660  135.5946  155.1630 C.3     1  UNL1        0.0896
     27 C         141.8247  134.5333  155.7845 C.3     1  UNL1        0.0196
     28 C         142.9275  134.9169  156.7261 C.3     1  UNL1        0.0017
     29 C         143.7861  133.8556  157.3476 C.3     1  UNL1        0.0018
     30 C         143.5419  132.4107  157.0276 C.3     1  UNL1        0.0197
     31 C         142.4391  132.0270  156.0860 C.3     1  UNL1        0.0018
     32 C         141.5805  133.0883  155.4645 C.3     1  UNL1        0.0017
     33 C         144.4006  131.3493  157.6492 C.3     1  UNL1        0.0926
     34 N         143.8041  130.0241  158.0205 N.am    1  UNL1       -0.2707
     35 C         144.1185  128.8052  157.2048 C.2     1  UNL1        0.4014
     36 O         145.0294  128.9115  156.0178 O.2     1  UNL1       -0.2264
     37 H         143.2062  129.9543  158.7995 H       1  UNL1        0.1527
     38 O         143.5220  127.4799  157.5761 O.3     1  UNL1       -0.4419
     39 C         142.0418  127.2654  157.4623 C.3     1  UNL1        0.1378
     40 C         141.9558  127.0712  158.9472 C.3     1  UNL1        0.0437
     41 C         142.1277  127.4597  155.9775 C.3     1  UNL1        0.0437
     42 C         140.5615  127.0509  157.3486 C.3     1  UNL1        0.0437
@<TRIPOS>BOND
     1    19    20    1
     2    20    21    1
     3    20    18    1
     4    18    17    1
     5    17    11    1
     6    11    12    1
     7    12    13    1
     8    13    14    1
     9    14     1    1
    10     1     2   ar
    11     2     3   ar
    12     3    22    1
    13    22    23    2
    14    22    24   am
    15    24    26    1
    16    27    26    1
    17    27    28    1
    18    28    29    1
    19    29    30    1
    20    30    33    1
    21    33    34    1
    22    34    35   am
    23    35    36    2
    24    35    38    1
    25    38    39    1
    26    39    40    1
    27    39    41    1
    28    39    42    1
    29    30    31    1
    30    31    32    1
    31     3     4   ar
    32     4     5   ar
    33     5     6   ar
    34     6     7   ar
    35     7     8   ar
    36     8     9   ar
    37     9    10   ar
    38    14    15    1
    39    15    16    1
    40    16    11    1
    41    10     1   ar
    42    32    27    1
    43     9     4   ar
    44    24    25    1
    45    34    37    1
@<TRIPOS>MOLECULE
*****
 42 45 0 0 0
SMALL
GASTEIGER

@<TRIPOS>ATOM
      1 C         142.7268  140.6394  164.3616 C.ar    1  UNL1        0.1318
      2 C         142.5716  141.8870  163.5435 C.ar    1  UNL1        0.0388
      3 C         142.5553  141.8048  162.0459 C.ar    1  UNL1        0.0576
      4 C         142.6944  140.4747  161.3663 C.ar    1  UNL1        0.0222
      5 C         142.6782  140.3925  159.8686 C.ar    1  UNL1        0.0016
      6 C         142.8172  139.0625  159.1891 C.ar    1  UNL1        0.0001
      7 C         142.9725  137.8148  160.0072 C.ar    1  UNL1        0.0015
      8 C         142.9887  137.8971  161.5048 C.ar    1  UNL1        0.0191
      9 C         142.8497  139.2271  162.1843 C.ar    1  UNL1        0.0828
     10 N         142.8659  139.3094  163.6820 N.ar    1  UNL1       -0.2307
     11 C         142.7755  140.8865  168.8545 C.3     1  UNL1        0.0048
     12 C         142.9390  142.1309  168.0332 C.3     1  UNL1        0.0216
     13 C         142.9228  142.0485  166.5355 C.3     1  UNL1        0.0922
     14 N         142.7430  140.7217  165.8593 N.pl3   1  UNL1       -0.2932
     15 C         142.5795  139.4773  166.6807 C.3     1  UNL1        0.0922
     16 C         142.5957  139.5597  168.1783 C.3     1  UNL1        0.0216
     17 C         142.7917  140.9689  170.3522 C.3     1  UNL1        0.0174
     18 C         141.5028  140.9394  171.1189 C.3     1  UNL1        0.0722
     19 C         139.2309  140.4310  169.9657 C.3     1  UNL1        0.0897
     20 N         140.2362  141.4207  170.4755 N.3     1  UNL1       -0.2703
     21 C         139.9749  142.8917  170.3419 C.3     1  UNL1        0.0897
     22 C         142.4001  143.0524  161.2278 C.2     1  UNL1        0.2460
     23 O         143.5840  143.6320  160.5119 O.2     1  UNL1       -0.2701
     24 N         141.0610  143.7205  161.1257 N.am    1  UNL1       -0.3009
     25 H         140.2840  143.3401  161.5955 H       1  UNL1        0.1497
     26 C         140.9057  144.9681  160.3076 C.3     1  UNL1        0.0896
     27 C         140.3846  144.8843  158.9035 C.3     1  UNL1        0.0196
     28 C         140.6279  146.0118  157.9446 C.3     1  UNL1        0.0017
     29 C         140.1067  145.9280  156.5406 C.3     1  UNL1        0.0018
     30 C         139.3422  144.7166  156.0954 C.3     1  UNL1        0.0197
     31 C         139.0989  143.5891  157.0543 C.3     1  UNL1        0.0018
     32 C         139.6201  143.6729  158.4583 C.3     1  UNL1        0.0017
     33 C         138.8211  144.6328  154.6913 C.3     1  UNL1        0.0926
     34 N         137.4342  144.1220  154.4354 N.am    1  UNL1       -0.2707
     35 C         137.2224  142.6879  154.0502 C.2     1  UNL1        0.4014
     36 O         138.3974  141.7646  153.9210 O.2     1  UNL1       -0.2264
     37 H         136.6629  144.7280  154.5202 H       1  UNL1        0.1527
     38 O         135.8354  142.1770  153.7942 O.3     1  UNL1       -0.4419
     39 C         135.4170  140.8409  154.3325 C.3     1  UNL1        0.1378
     40 C         135.4746  140.2654  152.9485 C.3     1  UNL1        0.0437
     41 C         135.3595  141.4165  155.7164 C.3     1  UNL1        0.0437
     42 C         134.9986  139.5047  154.8707 C.3     1  UNL1        0.0437
@<TRIPOS>BOND
     1    19    20    1
     2    20    21    1
     3    20    18    1
     4    18    17    1
     5    17    11    1
     6    11    12    1
     7    12    13    1
     8    13    14    1
     9    14     1    1
    10     1     2   ar
    11     2     3   ar
    12     3    22    1
    13    22    23    2
    14    22    24   am
    15    24    26    1
    16    27    26    1
    17    27    28    1
    18    28    29    1
    19    29    30    1
    20    30    33    1
    21    33    34    1
    22    34    35   am
    23    35    36    2
    24    35    38    1
    25    38    39    1
    26    39    40    1
    27    39    41    1
    28    39    42    1
    29    30    31    1
    30    31    32    1
    31     3     4   ar
    32     4     5   ar
    33     5     6   ar
    34     6     7   ar
    35     7     8   ar
    36     8     9   ar
    37     9    10   ar
    38    14    15    1
    39    15    16    1
    40    16    11    1
    41    10     1   ar
    42    32    27    1
    43     9     4   ar
    44    24    25    1
    45    34    37    1
