@<TRIPOS>MOLECULE
*****
 33 36 0 0 0
SMALL
GASTEIGER

@<TRIPOS>ATOM
      1 N         143.0578  141.6459  161.7560 N.ar    1  UNL1       -0.2900
      2 C         143.8526  141.2445  160.5489 C.ar    1  UNL1        0.0891
      3 C         143.8027  142.0820  159.3055 C.ar    1  UNL1        0.1098
      4 C         142.9579  143.3209  159.2692 C.ar    1  UNL1        0.2043
      5 O         142.9080  144.1585  158.0258 O.2     1  UNL1       -0.2863
      6 C         142.1630  143.7224  160.4763 C.ar    1  UNL1        0.0736
      7 C         141.3182  144.9613  160.4400 C.ar    1  UNL1        0.0078
      8 C         140.5234  145.3627  161.6470 C.ar    1  UNL1        0.0209
      9 C         140.5733  144.5252  162.8904 C.ar    1  UNL1        0.1005
     10 N         141.4181  143.2863  162.9268 N.ar    1  UNL1       -0.2263
     11 C         142.2129  142.8849  161.7197 C.ar    1  UNL1        0.1507
     12 C         141.9089  139.7372  165.0403 C.ar    1  UNL1        0.0014
     13 C         143.2076  139.1333  165.4862 C.ar    1  UNL1        0.0001
     14 C         144.4563  139.3669  164.6886 C.ar    1  UNL1        0.0015
     15 C         144.4063  140.2044  163.4452 C.ar    1  UNL1        0.0176
     16 C         143.1077  140.8083  162.9994 C.ar    1  UNL1        0.0654
     17 C         141.8589  140.5747  163.7969 C.ar    1  UNL1        0.0176
     18 C         139.2951  139.8218  168.0254 C.ar    1  UNL1        0.0347
     19 C         138.1627  139.0363  167.4330 C.ar    1  UNL1        0.0028
     20 C         138.2791  138.4845  166.0431 C.ar    1  UNL1        0.0001
     21 C         139.5279  138.7181  165.2455 C.ar    1  UNL1        0.0000
     22 C         140.6602  139.5036  165.8379 C.ar    1  UNL1        0.0001
     23 C         140.5438  140.0554  167.2279 C.ar    1  UNL1        0.0028
     24 C         140.1081  141.4589  169.8717 C.3     1  UNL1        0.0773
     25 C         139.1787  140.3736  169.4154 C.2     1  UNL1        0.1735
     26 O         138.1329  139.8401  170.3489 O.2     1  UNL1       -0.2913
     27 C         144.5976  141.6805  158.0984 C.2     1  UNL1        0.2504
     28 O         144.6863  140.2357  157.7054 O.2     1  UNL1       -0.2700
     29 N         145.3037  142.7239  157.2844 N.am    1  UNL1       -0.3024
     30 H         145.2454  143.6723  157.5423 H       1  UNL1        0.1497
     31 C         146.0985  142.3225  156.0773 C.3     1  UNL1        0.0720
     32 C         147.5919  142.2113  156.1656 C.3     1  UNL1        0.0213
     33 C         145.4001  142.0321  154.7820 C.3     1  UNL1        0.0213
@<TRIPOS>BOND
     1    24    25    1
     2    25    26    2
     3    25    18    1
     4    18    19   ar
     5    19    20   ar
     6    20    21   ar
     7    21    22   ar
     8    22    12    1
     9    12    13   ar
    10    13    14   ar
    11    14    15   ar
    12    15    16   ar
    13    16     1    1
    14     1     2   ar
    15     2     3   ar
    16     3    27    1
    17    27    28    2
    18    27    29   am
    19    29    31    1
    20    31    32    1
    21    31    33    1
    22     3     4   ar
    23     4     5    2
    24     4     6   ar
    25     6     7   ar
    26     7     8   ar
    27     8     9   ar
    28     9    10   ar
    29    10    11   ar
    30    16    17   ar
    31    22    23   ar
    32    23    18   ar
    33    17    12   ar
    34    11     1   ar
    35    11     6   ar
    36    29    30    1
@<TRIPOS>MOLECULE
*****
 33 36 0 0 0
SMALL
GASTEIGER

@<TRIPOS>ATOM
      1 N         142.7650  143.3769  162.0844 N.ar    1  UNL1       -0.2900
      2 C         143.5742  142.6516  161.0504 C.ar    1  UNL1        0.0891
      3 C         143.3148  142.8898  159.5923 C.ar    1  UNL1        0.1098
      4 C         142.2463  143.8533  159.1682 C.ar    1  UNL1        0.2043
      5 O         141.9869  144.0915  157.7102 O.2     1  UNL1       -0.2863
      6 C         141.4371  144.5787  160.2023 C.ar    1  UNL1        0.0736
      7 C         140.3686  145.5422  159.7782 C.ar    1  UNL1        0.0078
      8 C         139.5594  146.2675  160.8122 C.ar    1  UNL1        0.0209
      9 C         139.8188  146.0293  162.2703 C.ar    1  UNL1        0.1005
     10 N         140.8873  145.0658  162.6943 N.ar    1  UNL1       -0.2263
     11 C         141.6965  144.3405  161.6603 C.ar    1  UNL1        0.1507
     12 C         142.2688  142.1761  165.8343 C.ar    1  UNL1        0.0014
     13 C         143.5432  142.6623  166.4586 C.ar    1  UNL1        0.0001
     14 C         144.5581  143.3866  165.6248 C.ar    1  UNL1        0.0015
     15 C         144.2987  143.6248  164.1667 C.ar    1  UNL1        0.0176
     16 C         143.0244  143.1387  163.5425 C.ar    1  UNL1        0.0654
     17 C         142.0094  142.4143  164.3763 C.ar    1  UNL1        0.0176
     18 C         139.3516  139.6943  166.8734 C.ar    1  UNL1        0.0347
     19 C         139.2241  140.0031  168.3358 C.ar    1  UNL1        0.0028
     20 C         140.1115  141.0363  168.9643 C.ar    1  UNL1        0.0001
     21 C         141.1264  141.7607  168.1304 C.ar    1  UNL1        0.0000
     22 C         141.2539  141.4518  166.6681 C.ar    1  UNL1        0.0001
     23 C         140.3665  140.4186  166.0396 C.ar    1  UNL1        0.0028
     24 C         138.8306  138.0644  164.9183 C.3     1  UNL1        0.0773
     25 C         138.4642  138.6611  166.2449 C.2     1  UNL1        0.1735
     26 O         137.2103  138.2245  166.9429 O.2     1  UNL1       -0.2913
     27 C         144.1240  142.1644  158.5583 C.2     1  UNL1        0.2504
     28 O         144.2789  140.6745  158.6368 O.2     1  UNL1       -0.2700
     29 N         144.7781  142.9289  157.4459 N.am    1  UNL1       -0.3024
     30 H         144.6764  143.9068  157.3944 H       1  UNL1        0.1497
     31 C         145.5873  142.2036  156.4119 C.3     1  UNL1        0.0720
     32 C         144.8980  141.4429  155.3181 C.3     1  UNL1        0.0213
     33 C         147.0857  142.2388  156.4717 C.3     1  UNL1        0.0213
@<TRIPOS>BOND
     1    24    25    1
     2    25    26    2
     3    25    18    1
     4    18    19   ar
     5    19    20   ar
     6    20    21   ar
     7    21    22   ar
     8    22    12    1
     9    12    13   ar
    10    13    14   ar
    11    14    15   ar
    12    15    16   ar
    13    16     1    1
    14     1     2   ar
    15     2     3   ar
    16     3    27    1
    17    27    28    2
    18    27    29   am
    19    29    31    1
    20    31    32    1
    21    31    33    1
    22     3     4   ar
    23     4     5    2
    24     4     6   ar
    25     6     7   ar
    26     7     8   ar
    27     8     9   ar
    28     9    10   ar
    29    10    11   ar
    30    16    17   ar
    31    22    23   ar
    32    23    18   ar
    33    17    12   ar
    34    11     1   ar
    35    11     6   ar
    36    29    30    1
@<TRIPOS>MOLECULE
*****
 33 36 0 0 0
SMALL
GASTEIGER

@<TRIPOS>ATOM
      1 N         141.1651  141.0696  162.6319 N.ar    1  UNL1       -0.2900
      2 C         140.3754  141.6819  161.5132 C.ar    1  UNL1        0.0891
      3 C         141.0629  142.5372  160.4905 C.ar    1  UNL1        0.1098
      4 C         142.5399  142.7802  160.5865 C.ar    1  UNL1        0.2043
      5 O         143.2273  143.6355  159.5638 O.2     1  UNL1       -0.2863
      6 C         143.3296  142.1679  161.7053 C.ar    1  UNL1        0.0736
      7 C         144.8066  142.4109  161.8013 C.ar    1  UNL1        0.0078
      8 C         145.5963  141.7986  162.9200 C.ar    1  UNL1        0.0209
      9 C         144.9089  140.9433  163.9427 C.ar    1  UNL1        0.1005
     10 N         143.4318  140.7003  163.8467 N.ar    1  UNL1       -0.2263
     11 C         142.6422  141.3126  162.7280 C.ar    1  UNL1        0.1507
     12 C         139.6605  139.8399  166.0923 C.ar    1  UNL1        0.0014
     13 C         139.1028  138.5037  165.7001 C.ar    1  UNL1        0.0001
     14 C         139.2327  138.0229  164.2852 C.ar    1  UNL1        0.0015
     15 C         139.9201  138.8782  163.2625 C.ar    1  UNL1        0.0176
     16 C         140.4777  140.2143  163.6547 C.ar    1  UNL1        0.0654
     17 C         140.3479  140.6952  165.0696 C.ar    1  UNL1        0.0176
     18 C         140.1859  141.9932  169.3843 C.ar    1  UNL1        0.0347
     19 C         139.2710  141.2824  170.3370 C.ar    1  UNL1        0.0028
     20 C         138.4858  140.0908  169.8748 C.ar    1  UNL1        0.0001
     21 C         138.6157  139.6100  168.4599 C.ar    1  UNL1        0.0000
     22 C         139.5306  140.3208  167.5072 C.ar    1  UNL1        0.0001
     23 C         140.3158  141.5124  167.9694 C.ar    1  UNL1        0.0028
     24 C         142.4658  143.1061  169.9444 C.3     1  UNL1        0.0773
     25 C         140.9711  143.1848  169.8465 C.2     1  UNL1        0.1735
     26 O         140.2615  144.4552  170.2107 O.2     1  UNL1       -0.2913
     27 C         140.2731  143.1494  159.3718 C.2     1  UNL1        0.2504
     28 O         138.8124  143.4370  159.5547 O.2     1  UNL1       -0.2700
     29 N         140.9442  143.4742  158.0702 N.am    1  UNL1       -0.3024
     30 H         141.9030  143.2854  157.9501 H       1  UNL1        0.1497
     31 C         140.1545  144.0864  156.9515 C.3     1  UNL1        0.0720
     32 C         140.1821  145.5711  156.7389 C.3     1  UNL1        0.0213
     33 C         139.3372  143.2141  156.0454 C.3     1  UNL1        0.0213
@<TRIPOS>BOND
     1    24    25    1
     2    25    26    2
     3    25    18    1
     4    18    19   ar
     5    19    20   ar
     6    20    21   ar
     7    21    22   ar
     8    22    12    1
     9    12    13   ar
    10    13    14   ar
    11    14    15   ar
    12    15    16   ar
    13    16     1    1
    14     1     2   ar
    15     2     3   ar
    16     3    27    1
    17    27    28    2
    18    27    29   am
    19    29    31    1
    20    31    32    1
    21    31    33    1
    22     3     4   ar
    23     4     5    2
    24     4     6   ar
    25     6     7   ar
    26     7     8   ar
    27     8     9   ar
    28     9    10   ar
    29    10    11   ar
    30    16    17   ar
    31    22    23   ar
    32    23    18   ar
    33    17    12   ar
    34    11     1   ar
    35    11     6   ar
    36    29    30    1
@<TRIPOS>MOLECULE
*****
 33 36 0 0 0
SMALL
GASTEIGER

@<TRIPOS>ATOM
      1 N         142.6413  139.6078  160.7824 N.ar    1  UNL1       -0.2900
      2 C         142.5045  138.4121  159.8871 C.ar    1  UNL1        0.0891
      3 C         142.3207  138.5982  158.4101 C.ar    1  UNL1        0.1098
      4 C         142.2737  139.9800  157.8284 C.ar    1  UNL1        0.2043
      5 O         142.0898  140.1661  156.3513 O.2     1  UNL1       -0.2863
      6 C         142.4105  141.1758  158.7237 C.ar    1  UNL1        0.0736
      7 C         142.3635  142.5575  158.1420 C.ar    1  UNL1        0.0078
      8 C         142.5004  143.7532  159.0373 C.ar    1  UNL1        0.0209
      9 C         142.6842  143.5671  160.5143 C.ar    1  UNL1        0.1005
     10 N         142.7312  142.1853  161.0960 N.ar    1  UNL1       -0.2263
     11 C         142.5943  140.9897  160.2007 C.ar    1  UNL1        0.1507
     12 C         141.8133  139.1886  164.6410 C.ar    1  UNL1        0.0014
     13 C         143.1928  139.0495  165.2134 C.ar    1  UNL1        0.0001
     14 C         144.3884  139.0964  164.3089 C.ar    1  UNL1        0.0015
     15 C         144.2046  139.2825  162.8319 C.ar    1  UNL1        0.0176
     16 C         142.8252  139.4217  162.2594 C.ar    1  UNL1        0.0654
     17 C         141.6295  139.3747  163.1640 C.ar    1  UNL1        0.0176
     18 C         139.4545  139.8007  167.7732 C.ar    1  UNL1        0.0347
     19 C         138.2264  139.0478  167.3547 C.ar    1  UNL1        0.0028
     20 C         138.1940  138.3418  166.0316 C.ar    1  UNL1        0.0001
     21 C         139.3897  138.3888  165.1270 C.ar    1  UNL1        0.0000
     22 C         140.6177  139.1417  165.5456 C.ar    1  UNL1        0.0001
     23 C         140.6501  139.8476  166.8687 C.ar    1  UNL1        0.0028
     24 C         140.2340  141.7996  169.2385 C.3     1  UNL1        0.0773
     25 C         139.4868  140.5067  169.0963 C.2     1  UNL1        0.1735
     26 O         138.7720  139.9197  170.2772 O.2     1  UNL1       -0.2913
     27 C         142.1838  137.4025  157.5148 C.2     1  UNL1        0.2504
     28 O         140.8764  137.1193  156.8362 O.2     1  UNL1       -0.2700
     29 N         143.3544  136.4899  157.2980 N.am    1  UNL1       -0.3024
     30 H         144.2125  136.6758  157.7434 H       1  UNL1        0.1497
     31 C         143.2175  135.2943  156.4028 C.3     1  UNL1        0.0720
     32 C         143.2282  135.4677  154.9128 C.3     1  UNL1        0.0213
     33 C         143.0699  133.9251  156.9974 C.3     1  UNL1        0.0213
@<TRIPOS>BOND
     1    24    25    1
     2    25    26    2
     3    25    18    1
     4    18    19   ar
     5    19    20   ar
     6    20    21   ar
     7    21    22   ar
     8    22    12    1
     9    12    13   ar
    10    13    14   ar
    11    14    15   ar
    12    15    16   ar
    13    16     1    1
    14     1     2   ar
    15     2     3   ar
    16     3    27    1
    17    27    28    2
    18    27    29   am
    19    29    31    1
    20    31    32    1
    21    31    33    1
    22     3     4   ar
    23     4     5    2
    24     4     6   ar
    25     6     7   ar
    26     7     8   ar
    27     8     9   ar
    28     9    10   ar
    29    10    11   ar
    30    16    17   ar
    31    22    23   ar
    32    23    18   ar
    33    17    12   ar
    34    11     1   ar
    35    11     6   ar
    36    29    30    1
@<TRIPOS>MOLECULE
*****
 33 36 0 0 0
SMALL
GASTEIGER

@<TRIPOS>ATOM
      1 N         140.6521  141.3964  162.0224 N.ar    1  UNL1       -0.2900
      2 C         141.4290  140.4813  161.1230 C.ar    1  UNL1        0.0891
      3 C         142.0707  141.0196  159.8787 C.ar    1  UNL1        0.1098
      4 C         141.9355  142.4731  159.5337 C.ar    1  UNL1        0.2043
      5 O         142.5772  143.0114  158.2893 O.2     1  UNL1       -0.2863
      6 C         141.1586  143.3883  160.4331 C.ar    1  UNL1        0.0736
      7 C         141.0235  144.8418  160.0881 C.ar    1  UNL1        0.0078
      8 C         140.2466  145.7570  160.9875 C.ar    1  UNL1        0.0209
      9 C         139.6049  145.2187  162.2318 C.ar    1  UNL1        0.1005
     10 N         139.7401  143.7652  162.5768 N.ar    1  UNL1       -0.2263
     11 C         140.5169  142.8500  161.6775 C.ar    1  UNL1        0.1507
     12 C         140.0867  140.4114  165.8251 C.ar    1  UNL1        0.0014
     13 C         138.7271  139.7815  165.7556 C.ar    1  UNL1        0.0001
     14 C         138.0093  139.6899  164.4417 C.ar    1  UNL1        0.0015
     15 C         138.6509  140.2282  163.1973 C.ar    1  UNL1        0.0176
     16 C         140.0105  140.8581  163.2668 C.ar    1  UNL1        0.0654
     17 C         140.7284  140.9497  164.5807 C.ar    1  UNL1        0.0176
     18 C         141.1049  141.6191  169.4658 C.ar    1  UNL1        0.0347
     19 C         142.2403  140.6861  169.7667 C.ar    1  UNL1        0.0028
     20 C         142.6579  139.6616  168.7537 C.ar    1  UNL1        0.0001
     21 C         141.9399  139.5701  167.4398 C.ar    1  UNL1        0.0000
     22 C         140.8046  140.5030  167.1389 C.ar    1  UNL1        0.0001
     23 C         140.3871  141.5275  168.1519 C.ar    1  UNL1        0.0028
     24 C         140.4048  144.0524  170.0480 C.3     1  UNL1        0.0773
     25 C         140.6874  142.6436  170.4787 C.2     1  UNL1        0.1735
     26 O         140.5525  142.2593  171.9223 O.2     1  UNL1       -0.2913
     27 C         142.8475  140.1043  158.9793 C.2     1  UNL1        0.2504
     28 O         144.0282  139.3504  159.5155 O.2     1  UNL1       -0.2700
     29 N         142.4437  139.9431  157.5437 N.am    1  UNL1       -0.3024
     30 H         141.6688  140.4379  157.1917 H       1  UNL1        0.1497
     31 C         143.2206  139.0279  156.6444 C.3     1  UNL1        0.0720
     32 C         142.8357  137.5824  156.5320 C.3     1  UNL1        0.0213
     33 C         144.3824  139.5580  155.8575 C.3     1  UNL1        0.0213
@<TRIPOS>BOND
     1    24    25    1
     2    25    26    2
     3    25    18    1
     4    18    19   ar
     5    19    20   ar
     6    20    21   ar
     7    21    22   ar
     8    22    12    1
     9    12    13   ar
    10    13    14   ar
    11    14    15   ar
    12    15    16   ar
    13    16     1    1
    14     1     2   ar
    15     2     3   ar
    16     3    27    1
    17    27    28    2
    18    27    29   am
    19    29    31    1
    20    31    32    1
    21    31    33    1
    22     3     4   ar
    23     4     5    2
    24     4     6   ar
    25     6     7   ar
    26     7     8   ar
    27     8     9   ar
    28     9    10   ar
    29    10    11   ar
    30    16    17   ar
    31    22    23   ar
    32    23    18   ar
    33    17    12   ar
    34    11     1   ar
    35    11     6   ar
    36    29    30    1
@<TRIPOS>MOLECULE
*****
 33 36 0 0 0
SMALL
GASTEIGER

@<TRIPOS>ATOM
      1 N         142.3295  141.6862  161.8213 N.ar    1  UNL1       -0.2900
      2 C         143.2618  141.2823  160.7178 C.ar    1  UNL1        0.0891
      3 C         143.4497  142.1779  159.5293 C.ar    1  UNL1        0.1098
      4 C         142.7053  143.4774  159.4443 C.ar    1  UNL1        0.2043
      5 O         142.8932  144.3730  158.2558 O.2     1  UNL1       -0.2863
      6 C         141.7731  143.8813  160.5478 C.ar    1  UNL1        0.0736
      7 C         141.0287  145.1808  160.4628 C.ar    1  UNL1        0.0078
      8 C         140.0965  145.5847  161.5663 C.ar    1  UNL1        0.0209
      9 C         139.9086  144.6891  162.7549 C.ar    1  UNL1        0.1005
     10 N         140.6529  143.3896  162.8398 N.ar    1  UNL1       -0.2263
     11 C         141.5852  142.9857  161.7363 C.ar    1  UNL1        0.1507
     12 C         142.0514  140.4585  165.5850 C.ar    1  UNL1        0.0014
     13 C         141.7658  138.9993  165.3868 C.ar    1  UNL1        0.0001
     14 C         141.6682  138.4358  164.0001 C.ar    1  UNL1        0.0015
     15 C         141.8561  139.3314  162.8116 C.ar    1  UNL1        0.0176
     16 C         142.1416  140.7905  163.0098 C.ar    1  UNL1        0.0654
     17 C         142.2393  141.3541  164.3965 C.ar    1  UNL1        0.0176
     18 C         141.2135  141.2310  169.3864 C.ar    1  UNL1        0.0347
     19 C         142.3443  142.1492  169.7450 C.ar    1  UNL1        0.0028
     20 C         143.3774  142.5037  168.7169 C.ar    1  UNL1        0.0001
     21 C         143.2797  141.9401  167.3302 C.ar    1  UNL1        0.0000
     22 C         142.1490  141.0221  166.9717 C.ar    1  UNL1        0.0001
     23 C         141.1159  140.6675  167.9998 C.ar    1  UNL1        0.0028
     24 C         138.8558  140.3185  169.9853 C.3     1  UNL1        0.0773
     25 C         140.1804  140.8765  170.4145 C.2     1  UNL1        0.1735
     26 O         140.4718  141.0800  171.8718 O.2     1  UNL1       -0.2913
     27 C         144.3820  141.7740  158.4257 C.2     1  UNL1        0.2504
     28 O         144.5617  140.3234  158.0890 O.2     1  UNL1       -0.2700
     29 N         145.1345  142.8207  157.6589 N.am    1  UNL1       -0.3024
     30 H         145.0166  143.7728  157.8799 H       1  UNL1        0.1497
     31 C         146.0667  142.4168  156.5554 C.3     1  UNL1        0.0720
     32 C         145.5160  141.8872  155.2645 C.3     1  UNL1        0.0213
     33 C         147.5497  142.5423  156.7428 C.3     1  UNL1        0.0213
@<TRIPOS>BOND
     1    24    25    1
     2    25    26    2
     3    25    18    1
     4    18    19   ar
     5    19    20   ar
     6    20    21   ar
     7    21    22   ar
     8    22    12    1
     9    12    13   ar
    10    13    14   ar
    11    14    15   ar
    12    15    16   ar
    13    16     1    1
    14     1     2   ar
    15     2     3   ar
    16     3    27    1
    17    27    28    2
    18    27    29   am
    19    29    31    1
    20    31    32    1
    21    31    33    1
    22     3     4   ar
    23     4     5    2
    24     4     6   ar
    25     6     7   ar
    26     7     8   ar
    27     8     9   ar
    28     9    10   ar
    29    10    11   ar
    30    16    17   ar
    31    22    23   ar
    32    23    18   ar
    33    17    12   ar
    34    11     1   ar
    35    11     6   ar
    36    29    30    1
@<TRIPOS>MOLECULE
*****
 33 36 0 0 0
SMALL
GASTEIGER

@<TRIPOS>ATOM
      1 N         141.6641  139.5356  161.2430 N.ar    1  UNL1       -0.2900
      2 C         141.5688  138.6721  160.0203 C.ar    1  UNL1        0.0891
      3 C         142.4780  138.9210  158.8535 C.ar    1  UNL1        0.1098
      4 C         143.4825  140.0336  158.9095 C.ar    1  UNL1        0.2043
      5 O         144.3917  140.2826  157.7427 O.2     1  UNL1       -0.2863
      6 C         143.5778  140.8972  160.1323 C.ar    1  UNL1        0.0736
      7 C         144.5823  142.0098  160.1882 C.ar    1  UNL1        0.0078
      8 C         144.6776  142.8734  161.4110 C.ar    1  UNL1        0.0209
      9 C         143.7684  142.6244  162.5777 C.ar    1  UNL1        0.1005
     10 N         142.7639  141.5118  162.5217 N.ar    1  UNL1       -0.2263
     11 C         142.6686  140.6483  161.2990 C.ar    1  UNL1        0.1507
     12 C         140.3430  139.2558  164.9748 C.ar    1  UNL1        0.0014
     13 C         138.9364  138.7887  164.7433 C.ar    1  UNL1        0.0001
     14 C         138.4391  138.5707  163.3450 C.ar    1  UNL1        0.0015
     15 C         139.3484  138.8197  162.1783 C.ar    1  UNL1        0.0176
     16 C         140.7548  139.2867  162.4098 C.ar    1  UNL1        0.0654
     17 C         141.2522  139.5047  163.8081 C.ar    1  UNL1        0.0176
     18 C         140.4098  140.2246  168.8227 C.ar    1  UNL1        0.0347
     19 C         141.8348  139.9099  169.1696 C.ar    1  UNL1        0.0028
     20 C         142.7625  139.3771  168.1182 C.ar    1  UNL1        0.0001
     21 C         142.2652  139.1591  166.7199 C.ar    1  UNL1        0.0000
     22 C         140.8402  139.4738  166.3731 C.ar    1  UNL1        0.0001
     23 C         139.9125  140.0066  167.4245 C.ar    1  UNL1        0.0028
     24 C         139.6359  142.1662  170.3660 C.3     1  UNL1        0.0773
     25 C         139.4821  140.7574  169.8742 C.2     1  UNL1        0.1735
     26 O         138.4006  139.8816  170.4338 O.2     1  UNL1       -0.2913
     27 C         142.3827  138.0574  157.6307 C.2     1  UNL1        0.2504
     28 O         141.0659  137.4555  157.2384 O.2     1  UNL1       -0.2700
     29 N         143.6041  137.7957  156.8003 N.am    1  UNL1       -0.3024
     30 H         144.4683  138.1907  157.0578 H       1  UNL1        0.1497
     31 C         143.5087  136.9321  155.5776 C.3     1  UNL1        0.0720
     32 C         143.9521  135.5001  155.6343 C.3     1  UNL1        0.0213
     33 C         142.9700  137.5003  154.2982 C.3     1  UNL1        0.0213
@<TRIPOS>BOND
     1    24    25    1
     2    25    26    2
     3    25    18    1
     4    18    19   ar
     5    19    20   ar
     6    20    21   ar
     7    21    22   ar
     8    22    12    1
     9    12    13   ar
    10    13    14   ar
    11    14    15   ar
    12    15    16   ar
    13    16     1    1
    14     1     2   ar
    15     2     3   ar
    16     3    27    1
    17    27    28    2
    18    27    29   am
    19    29    31    1
    20    31    32    1
    21    31    33    1
    22     3     4   ar
    23     4     5    2
    24     4     6   ar
    25     6     7   ar
    26     7     8   ar
    27     8     9   ar
    28     9    10   ar
    29    10    11   ar
    30    16    17   ar
    31    22    23   ar
    32    23    18   ar
    33    17    12   ar
    34    11     1   ar
    35    11     6   ar
    36    29    30    1
@<TRIPOS>MOLECULE
*****
 33 36 0 0 0
SMALL
GASTEIGER

@<TRIPOS>ATOM
      1 N         139.6851  142.8939  161.1469 N.ar    1  UNL1       -0.2900
      2 C         140.1533  143.9316  160.1702 C.ar    1  UNL1        0.0891
      3 C         140.5115  143.5348  158.7686 C.ar    1  UNL1        0.1098
      4 C         140.4014  142.1005  158.3438 C.ar    1  UNL1        0.2043
      5 O         140.7595  141.7038  156.9423 O.2     1  UNL1       -0.2863
      6 C         139.9332  141.0628  159.3206 C.ar    1  UNL1        0.0736
      7 C         139.8231  139.6285  158.8957 C.ar    1  UNL1        0.0078
      8 C         139.3549  138.5908  159.8725 C.ar    1  UNL1        0.0209
      9 C         138.9967  138.9875  161.2740 C.ar    1  UNL1        0.1005
     10 N         139.1068  140.4219  161.6989 N.ar    1  UNL1       -0.2263
     11 C         139.5750  141.4595  160.7221 C.ar    1  UNL1        0.1507
     12 C         139.8738  143.3190  165.0882 C.ar    1  UNL1        0.0014
     13 C         138.6107  144.0841  165.3516 C.ar    1  UNL1        0.0001
     14 C         137.7058  144.4524  164.2134 C.ar    1  UNL1        0.0015
     15 C         138.0640  144.0557  162.8119 C.ar    1  UNL1        0.0176
     16 C         139.3270  143.2906  162.5485 C.ar    1  UNL1        0.0654
     17 C         140.2320  142.9223  163.6867 C.ar    1  UNL1        0.0176
     18 C         141.1906  142.6833  168.7776 C.ar    1  UNL1        0.0347
     19 C         142.5886  142.2140  168.5027 C.ar    1  UNL1        0.0028
     20 C         143.0816  142.1130  167.0897 C.ar    1  UNL1        0.0001
     21 C         142.1766  142.4813  165.9515 C.ar    1  UNL1        0.0000
     22 C         140.7787  142.9506  166.2264 C.ar    1  UNL1        0.0001
     23 C         140.2857  143.0516  167.6395 C.ar    1  UNL1        0.0028
     24 C         141.1387  141.7787  171.2126 C.3     1  UNL1        0.0773
     25 C         140.6976  142.7843  170.1907 C.2     1  UNL1        0.1735
     26 O         139.7636  143.8909  170.5819 O.2     1  UNL1       -0.2913
     27 C         140.9797  144.5726  157.7919 C.2     1  UNL1        0.2504
     28 O         142.1166  145.4825  158.1518 O.2     1  UNL1       -0.2700
     29 N         140.3112  144.7003  156.4552 N.am    1  UNL1       -0.3024
     30 H         139.5650  144.1030  156.2190 H       1  UNL1        0.1497
     31 C         140.7794  145.7379  155.4786 C.3     1  UNL1        0.0720
     32 C         141.9245  145.4381  154.5571 C.3     1  UNL1        0.0213
     33 C         140.1026  147.0754  155.4233 C.3     1  UNL1        0.0213
@<TRIPOS>BOND
     1    24    25    1
     2    25    26    2
     3    25    18    1
     4    18    19   ar
     5    19    20   ar
     6    20    21   ar
     7    21    22   ar
     8    22    12    1
     9    12    13   ar
    10    13    14   ar
    11    14    15   ar
    12    15    16   ar
    13    16     1    1
    14     1     2   ar
    15     2     3   ar
    16     3    27    1
    17    27    28    2
    18    27    29   am
    19    29    31    1
    20    31    32    1
    21    31    33    1
    22     3     4   ar
    23     4     5    2
    24     4     6   ar
    25     6     7   ar
    26     7     8   ar
    27     8     9   ar
    28     9    10   ar
    29    10    11   ar
    30    16    17   ar
    31    22    23   ar
    32    23    18   ar
    33    17    12   ar
    34    11     1   ar
    35    11     6   ar
    36    29    30    1
@<TRIPOS>MOLECULE
*****
 33 36 0 0 0
SMALL
GASTEIGER

@<TRIPOS>ATOM
      1 N         143.1678  142.6168  160.1742 N.ar    1  UNL1       -0.2900
      2 C         144.1901  141.9985  159.2672 C.ar    1  UNL1        0.0891
      3 C         144.2657  142.4149  157.8282 C.ar    1  UNL1        0.1098
      4 C         143.3191  143.4496  157.2961 C.ar    1  UNL1        0.2043
      5 O         143.3948  143.8661  155.8570 O.2     1  UNL1       -0.2863
      6 C         142.2968  144.0680  158.2031 C.ar    1  UNL1        0.0736
      7 C         141.3502  145.1028  157.6710 C.ar    1  UNL1        0.0078
      8 C         140.3279  145.7211  158.5779 C.ar    1  UNL1        0.0209
      9 C         140.2523  145.3047  160.0170 C.ar    1  UNL1        0.1005
     10 N         141.1989  144.2699  160.5491 N.ar    1  UNL1       -0.2263
     11 C         142.2211  143.6516  159.6421 C.ar    1  UNL1        0.1507
     12 C         141.9974  140.7731  163.4880 C.ar    1  UNL1        0.0014
     13 C         142.9409  141.3675  164.4913 C.ar    1  UNL1        0.0001
     14 C         143.9599  142.3783  164.0556 C.ar    1  UNL1        0.0015
     15 C         144.0355  142.7947  162.6166 C.ar    1  UNL1        0.0176
     16 C         143.0922  142.2004  161.6132 C.ar    1  UNL1        0.0654
     17 C         142.0731  141.1895  162.0489 C.ar    1  UNL1        0.0176
     18 C         139.2557  138.9146  165.6739 C.ar    1  UNL1        0.0347
     19 C         138.9404  137.7406  164.7950 C.ar    1  UNL1        0.0028
     20 C         139.6442  137.5774  163.4805 C.ar    1  UNL1        0.0001
     21 C         140.6633  138.5883  163.0448 C.ar    1  UNL1        0.0000
     22 C         140.9785  139.7623  163.9236 C.ar    1  UNL1        0.0001
     23 C         140.2746  139.9254  165.2382 C.ar    1  UNL1        0.0028
     24 C         139.1673  139.9157  168.0697 C.3     1  UNL1        0.0773
     25 C         138.5518  139.0778  166.9884 C.2     1  UNL1        0.1735
     26 O         137.2327  138.4030  167.2217 O.2     1  UNL1       -0.2913
     27 C         145.2881  141.7965  156.9212 C.2     1  UNL1        0.2504
     28 O         145.3753  140.3042  156.7966 O.2     1  UNL1       -0.2700
     29 N         146.2231  142.6704  156.1390 N.am    1  UNL1       -0.3024
     30 H         146.1659  143.6498  156.2208 H       1  UNL1        0.1497
     31 C         147.2454  142.0520  155.2321 C.3     1  UNL1        0.0720
     32 C         148.6543  141.8607  155.7101 C.3     1  UNL1        0.0213
     33 C         146.8589  141.6249  153.8471 C.3     1  UNL1        0.0213
@<TRIPOS>BOND
     1    24    25    1
     2    25    26    2
     3    25    18    1
     4    18    19   ar
     5    19    20   ar
     6    20    21   ar
     7    21    22   ar
     8    22    12    1
     9    12    13   ar
    10    13    14   ar
    11    14    15   ar
    12    15    16   ar
    13    16     1    1
    14     1     2   ar
    15     2     3   ar
    16     3    27    1
    17    27    28    2
    18    27    29   am
    19    29    31    1
    20    31    32    1
    21    31    33    1
    22     3     4   ar
    23     4     5    2
    24     4     6   ar
    25     6     7   ar
    26     7     8   ar
    27     8     9   ar
    28     9    10   ar
    29    10    11   ar
    30    16    17   ar
    31    22    23   ar
    32    23    18   ar
    33    17    12   ar
    34    11     1   ar
    35    11     6   ar
    36    29    30    1
