@<TRIPOS>MOLECULE
*****
 34 38 0 0 0
SMALL
GASTEIGER

@<TRIPOS>ATOM
      1 C         142.9661  139.1799  157.9456 C.2     1  UNL1        0.3045
      2 O         142.9902  140.4373  157.1280 O.2     1  UNL1       -0.2647
      3 N         143.3305  139.2239  159.4000 N.am    1  UNL1       -0.2720
      4 C         143.3064  137.9666  160.2176 C.3     1  UNL1        0.0976
      5 C         143.6708  138.0106  161.6720 C.3     1  UNL1        0.0651
      6 C         144.0592  139.3119  162.3088 C.3     1  UNL1        0.1694
      7 C         144.0833  140.5692  161.4912 C.3     1  UNL1        0.0651
      8 C         143.7189  140.5252  160.0368 C.3     1  UNL1        0.0976
      9 C         142.6721  135.6121  156.4456 C.ar    1  UNL1        0.2501
     10 N         141.2876  136.1398  156.2120 N.ar    1  UNL1       -0.1068
     11 N         141.2291  137.5405  156.7454 N.ar    1  UNL1       -0.1021
     12 C         142.5776  137.8786  157.3088 C.ar    1  UNL1        0.3042
     13 O         143.4694  136.6868  157.1235 O.2     1  UNL1       -0.4122
     14 C         144.1707  131.5232  155.3121 C.ar    1  UNL1        0.1387
     15 C         143.1955  132.2374  154.4240 C.ar    1  UNL1        0.0371
     16 C         142.6959  133.6003  154.8019 C.ar    1  UNL1        0.0078
     17 C         143.1716  134.2492  156.0678 C.ar    1  UNL1        0.0553
     18 C         144.1469  133.5350  156.9559 C.ar    1  UNL1        0.0078
     19 C         144.6465  132.1720  156.5781 C.ar    1  UNL1        0.0371
     20 C         144.3203  129.5772  153.5973 C.3     1  UNL1        0.2525
     21 O         144.6703  130.1602  154.9343 O.3     1  UNL1       -0.4714
     22 O         144.4236  139.3559  163.7632 O.3     1  UNL1       -0.4775
     23 C         143.3549  139.5442  164.7988 C.ar    1  UNL1        0.1574
     24 C         143.5530  139.0103  166.1865 C.ar    1  UNL1        0.0398
     25 C         142.4843  139.1986  167.2221 C.ar    1  UNL1        0.0193
     26 C         141.2176  139.9208  166.8699 C.ar    1  UNL1        0.0754
     27 N         141.0196  140.4547  165.4822 N.ar    1  UNL1       -0.2436
     28 C         142.0883  140.2664  164.4466 C.ar    1  UNL1        0.1352
     29 C         140.1488  140.1090  167.9056 C.3     1  UNL1        0.1186
     30 N         140.1433  141.3402  168.7624 N.3     1  UNL1       -0.2677
     31 C         139.5598  141.4533  170.1396 C.3     1  UNL1        0.0725
     32 C         139.7762  142.8574  170.6207 C.3     1  UNL1        0.0188
     33 C         140.4933  143.6122  169.5409 C.3     1  UNL1        0.0188
     34 C         140.7201  142.6744  168.3923 C.3     1  UNL1        0.0725
@<TRIPOS>BOND
     1    20    21    1
     2    21    14    1
     3    14    15   ar
     4    15    16   ar
     5    16    17   ar
     6    17     9    1
     7     9    10   ar
     8    10    11   ar
     9    11    12   ar
    10    12     1    1
    11     1     2    2
    12     1     3   am
    13     3     4    1
    14     4     5    1
    15     5     6    1
    16     6    22    1
    17    22    23    1
    18    23    24   ar
    19    24    25   ar
    20    25    26   ar
    21    26    29    1
    22    29    30    1
    23    30    31    1
    24    31    32    1
    25    32    33    1
    26    33    34    1
    27    26    27   ar
    28    27    28   ar
    29     6     7    1
    30     7     8    1
    31    12    13   ar
    32    17    18   ar
    33    18    19   ar
    34    19    14   ar
    35    13     9   ar
    36     8     3    1
    37    28    23   ar
    38    34    30    1
@<TRIPOS>MOLECULE
*****
 34 38 0 0 0
SMALL
GASTEIGER

@<TRIPOS>ATOM
      1 C         138.6754  139.0591  161.3048 C.2     1  UNL1        0.3045
      2 O         137.3515  139.5188  160.7701 O.2     1  UNL1       -0.2647
      3 N         139.7905  138.7234  160.3593 N.am    1  UNL1       -0.2720
      4 C         141.1144  138.2638  160.8940 C.3     1  UNL1        0.0976
      5 C         142.2294  137.9281  159.9485 C.3     1  UNL1        0.0651
      6 C         142.0205  138.0520  158.4683 C.3     1  UNL1        0.1694
      7 C         140.6966  138.5116  157.9336 C.3     1  UNL1        0.0651
      8 C         139.5815  138.8473  158.8791 C.3     1  UNL1        0.0976
      9 C         139.3193  139.4845  165.1087 C.ar    1  UNL1        0.2501
     10 N         139.0922  138.0047  165.0169 N.ar    1  UNL1       -0.1068
     11 N         138.8234  137.6651  163.5808 N.ar    1  UNL1       -0.1021
     12 C         138.8843  138.9352  162.7850 C.ar    1  UNL1        0.3042
     13 O         139.1908  140.0596  163.7293 O.2     1  UNL1       -0.4122
     14 C         140.2267  141.7934  168.8632 C.ar    1  UNL1        0.1387
     15 C         140.6032  142.3585  167.5257 C.ar    1  UNL1        0.0371
     16 C         140.3007  141.5889  166.2742 C.ar    1  UNL1        0.0078
     17 C         139.6218  140.2541  166.3602 C.ar    1  UNL1        0.0553
     18 C         139.2453  139.6890  167.6977 C.ar    1  UNL1        0.0078
     19 C         139.5478  140.4586  168.9492 C.ar    1  UNL1        0.0371
     20 C         141.4891  142.0063  171.1239 C.3     1  UNL1        0.2525
     21 O         140.5292  142.5630  170.1147 O.3     1  UNL1       -0.4714
     22 O         143.1356  137.7163  157.5228 O.3     1  UNL1       -0.4775
     23 C         143.1002  136.4331  156.7468 C.ar    1  UNL1        0.1574
     24 C         142.9128  136.4614  155.2588 C.ar    1  UNL1        0.0398
     25 C         142.8774  135.1783  154.4828 C.ar    1  UNL1        0.0193
     26 C         143.0294  133.8668  155.1948 C.ar    1  UNL1        0.0754
     27 N         143.2168  133.8384  156.6828 N.ar    1  UNL1       -0.2436
     28 C         143.2522  135.1216  157.4588 C.ar    1  UNL1        0.1352
     29 C         142.9939  132.5835  154.4187 C.3     1  UNL1        0.1186
     30 N         143.2584  131.2801  155.1122 N.3     1  UNL1       -0.2677
     31 C         142.2200  130.3066  155.5856 C.3     1  UNL1        0.0725
     32 C         142.9276  129.1461  156.2199 C.3     1  UNL1        0.0188
     33 C         144.4034  129.4022  156.1387 C.3     1  UNL1        0.0188
     34 C         144.6078  130.7212  155.4540 C.3     1  UNL1        0.0725
@<TRIPOS>BOND
     1    20    21    1
     2    21    14    1
     3    14    15   ar
     4    15    16   ar
     5    16    17   ar
     6    17     9    1
     7     9    10   ar
     8    10    11   ar
     9    11    12   ar
    10    12     1    1
    11     1     2    2
    12     1     3   am
    13     3     4    1
    14     4     5    1
    15     5     6    1
    16     6    22    1
    17    22    23    1
    18    23    24   ar
    19    24    25   ar
    20    25    26   ar
    21    26    29    1
    22    29    30    1
    23    30    31    1
    24    31    32    1
    25    32    33    1
    26    33    34    1
    27    26    27   ar
    28    27    28   ar
    29     6     7    1
    30     7     8    1
    31    12    13   ar
    32    17    18   ar
    33    18    19   ar
    34    19    14   ar
    35    13     9   ar
    36     8     3    1
    37    28    23   ar
    38    34    30    1
@<TRIPOS>MOLECULE
*****
 34 38 0 0 0
SMALL
GASTEIGER

@<TRIPOS>ATOM
      1 C         141.3393  139.7736  157.7311 C.2     1  UNL1        0.3045
      2 O         141.4039  141.0459  156.9393 O.2     1  UNL1       -0.2647
      3 N         140.5272  139.7147  158.9909 N.am    1  UNL1       -0.2720
      4 C         140.4626  138.4424  159.7828 C.3     1  UNL1        0.0976
      5 C         139.6505  138.3834  161.0424 C.3     1  UNL1        0.0651
      6 C         138.9029  139.5967  161.5103 C.3     1  UNL1        0.1694
      7 C         138.9674  140.8690  160.7184 C.3     1  UNL1        0.0651
      8 C         139.7796  140.9280  159.4587 C.3     1  UNL1        0.0976
      9 C         142.6314  136.2703  156.6717 C.ar    1  UNL1        0.2501
     10 N         143.8433  137.1160  156.4149 N.ar    1  UNL1       -0.1068
     11 N         143.5069  138.5313  156.7805 N.ar    1  UNL1       -0.1021
     12 C         142.0870  138.5603  157.2633 C.ar    1  UNL1        0.3042
     13 O         141.5459  137.1629  157.1960 O.2     1  UNL1       -0.4122
     14 C         142.3088  131.8341  155.9889 C.ar    1  UNL1        0.1387
     15 C         141.4761  132.7805  155.1761 C.ar    1  UNL1        0.0371
     16 C         141.5836  134.2592  155.4037 C.ar    1  UNL1        0.0078
     17 C         142.5239  134.7915  156.4441 C.ar    1  UNL1        0.0553
     18 C         143.3566  133.8451  157.2570 C.ar    1  UNL1        0.0078
     19 C         143.2490  132.3663  157.0294 C.ar    1  UNL1        0.0371
     20 C         143.4147  129.4848  155.9010 C.3     1  UNL1        0.2525
     21 O         142.2012  130.3553  155.7614 O.3     1  UNL1       -0.4714
     22 O         138.0907  139.5378  162.7700 O.3     1  UNL1       -0.4775
     23 C         138.7604  139.6992  164.1024 C.ar    1  UNL1        0.1574
     24 C         138.1043  139.1655  165.3412 C.ar    1  UNL1        0.0398
     25 C         138.7740  139.3270  166.6736 C.ar    1  UNL1        0.0193
     26 C         140.0999  140.0222  166.7672 C.ar    1  UNL1        0.0754
     27 N         140.7561  140.5559  165.5285 N.ar    1  UNL1       -0.2436
     28 C         140.0863  140.3945  164.1961 C.ar    1  UNL1        0.1352
     29 C         140.7697  140.1837  168.0997 C.3     1  UNL1        0.1186
     30 N         140.5142  141.4106  168.9238 N.3     1  UNL1       -0.2677
     31 C         140.8774  142.8166  168.5480 C.3     1  UNL1        0.0725
     32 C         140.4383  143.7219  169.6604 C.3     1  UNL1        0.0188
     33 C         139.8036  142.8755  170.7239 C.3     1  UNL1        0.0188
     34 C         139.8506  141.4470  170.2686 C.3     1  UNL1        0.0725
@<TRIPOS>BOND
     1    20    21    1
     2    21    14    1
     3    14    15   ar
     4    15    16   ar
     5    16    17   ar
     6    17     9    1
     7     9    10   ar
     8    10    11   ar
     9    11    12   ar
    10    12     1    1
    11     1     2    2
    12     1     3   am
    13     3     4    1
    14     4     5    1
    15     5     6    1
    16     6    22    1
    17    22    23    1
    18    23    24   ar
    19    24    25   ar
    20    25    26   ar
    21    26    29    1
    22    29    30    1
    23    30    31    1
    24    31    32    1
    25    32    33    1
    26    33    34    1
    27    26    27   ar
    28    27    28   ar
    29     6     7    1
    30     7     8    1
    31    12    13   ar
    32    17    18   ar
    33    18    19   ar
    34    19    14   ar
    35    13     9   ar
    36     8     3    1
    37    28    23   ar
    38    34    30    1
@<TRIPOS>MOLECULE
*****
 34 38 0 0 0
SMALL
GASTEIGER

@<TRIPOS>ATOM
      1 C         139.0003  139.8106  159.7758 C.2     1  UNL1        0.3045
      2 O         137.6714  139.9839  159.1019 O.2     1  UNL1       -0.2647
      3 N         140.0912  139.0382  159.0952 N.am    1  UNL1       -0.2720
      4 C         141.4201  138.8650  159.7691 C.3     1  UNL1        0.0976
      5 C         142.5110  138.0926  159.0886 C.3     1  UNL1        0.0651
      6 C         142.2732  137.4934  157.7342 C.3     1  UNL1        0.1694
      7 C         140.9443  137.6666  157.0604 C.3     1  UNL1        0.0651
      8 C         139.8533  138.4391  157.7409 C.3     1  UNL1        0.0976
      9 C         139.3735  140.6951  163.5366 C.ar    1  UNL1        0.2501
     10 N         139.8348  141.9686  162.8922 N.ar    1  UNL1       -0.1068
     11 N         139.7511  141.7923  161.4049 N.ar    1  UNL1       -0.1021
     12 C         139.2381  140.4098  161.1302 C.ar    1  UNL1        0.3042
     13 O         139.0048  139.7317  162.4476 O.2     1  UNL1       -0.4122
     14 C         139.1374  139.9035  167.9602 C.ar    1  UNL1        0.1387
     15 C         140.0159  141.0028  167.4408 C.ar    1  UNL1        0.0371
     16 C         140.0946  141.2667  165.9663 C.ar    1  UNL1        0.0078
     17 C         139.2948  140.4312  165.0111 C.ar    1  UNL1        0.0553
     18 C         138.4163  139.3320  165.5305 C.ar    1  UNL1        0.0078
     19 C         138.3376  139.0681  167.0050 C.ar    1  UNL1        0.0371
     20 C         140.1285  140.1605  170.3479 C.3     1  UNL1        0.2525
     21 O         139.0587  139.6397  169.4347 O.3     1  UNL1       -0.4714
     22 O         143.3641  136.7210  157.0536 O.3     1  UNL1       -0.4775
     23 C         143.1127  135.3161  156.5920 C.ar    1  UNL1        0.1574
     24 C         142.7231  135.0531  155.1676 C.ar    1  UNL1        0.0398
     25 C         142.4717  133.6483  154.7060 C.ar    1  UNL1        0.0193
     26 C         142.6099  132.5064  155.6688 C.ar    1  UNL1        0.0754
     27 N         142.9994  132.7693  157.0932 N.ar    1  UNL1       -0.2436
     28 C         143.2509  134.1742  157.5549 C.ar    1  UNL1        0.1352
     29 C         142.3584  131.1014  155.2071 C.3     1  UNL1        0.1186
     30 N         143.3573  130.0234  155.5067 N.3     1  UNL1       -0.2677
     31 C         143.4076  129.1894  156.7525 C.3     1  UNL1        0.0725
     32 C         144.5627  128.2406  156.6289 C.3     1  UNL1        0.0188
     33 C         145.2264  128.4880  155.3067 C.3     1  UNL1        0.0188
     34 C         144.4814  129.5899  154.6132 C.3     1  UNL1        0.0725
@<TRIPOS>BOND
     1    20    21    1
     2    21    14    1
     3    14    15   ar
     4    15    16   ar
     5    16    17   ar
     6    17     9    1
     7     9    10   ar
     8    10    11   ar
     9    11    12   ar
    10    12     1    1
    11     1     2    2
    12     1     3   am
    13     3     4    1
    14     4     5    1
    15     5     6    1
    16     6    22    1
    17    22    23    1
    18    23    24   ar
    19    24    25   ar
    20    25    26   ar
    21    26    29    1
    22    29    30    1
    23    30    31    1
    24    31    32    1
    25    32    33    1
    26    33    34    1
    27    26    27   ar
    28    27    28   ar
    29     6     7    1
    30     7     8    1
    31    12    13   ar
    32    17    18   ar
    33    18    19   ar
    34    19    14   ar
    35    13     9   ar
    36     8     3    1
    37    28    23   ar
    38    34    30    1
@<TRIPOS>MOLECULE
*****
 34 38 0 0 0
SMALL
GASTEIGER

@<TRIPOS>ATOM
      1 C         142.3413  144.0273  160.2016 C.2     1  UNL1        0.3045
      2 O         141.4603  145.1976  159.8787 O.2     1  UNL1       -0.2647
      3 N         142.7447  143.0710  159.1186 N.am    1  UNL1       -0.2720
      4 C         143.6257  141.9007  159.4415 C.3     1  UNL1        0.0976
      5 C         144.0290  140.9444  158.3586 C.3     1  UNL1        0.0651
      6 C         143.5514  141.1583  156.9529 C.3     1  UNL1        0.1694
      7 C         142.6704  142.3286  156.6301 C.3     1  UNL1        0.0651
      8 C         142.2670  143.2850  157.7130 C.3     1  UNL1        0.0976
      9 C         142.8609  143.2834  163.9754 C.ar    1  UNL1        0.2501
     10 N         144.2468  143.6849  163.5656 N.ar    1  UNL1       -0.1068
     11 N         144.2209  144.0125  162.1021 N.ar    1  UNL1       -0.1021
     12 C         142.8189  143.8134  161.6073 C.ar    1  UNL1        0.3042
     13 O         141.9784  143.3628  162.7651 O.2     1  UNL1       -0.4122
     14 C         141.5761  142.0562  168.1098 C.ar    1  UNL1        0.1387
     15 C         143.0333  142.0871  167.7555 C.ar    1  UNL1        0.0371
     16 C         143.4616  142.4962  166.3774 C.ar    1  UNL1        0.0078
     17 C         142.4326  142.8743  165.3536 C.ar    1  UNL1        0.0553
     18 C         140.9754  142.8434  165.7079 C.ar    1  UNL1        0.0078
     19 C         140.5472  142.4343  167.0860 C.ar    1  UNL1        0.0371
     20 C         139.7119  141.3072  169.7572 C.3     1  UNL1        0.2525
     21 O         141.1478  141.6471  169.4879 O.3     1  UNL1       -0.4714
     22 O         143.9548  140.2019  155.8700 O.3     1  UNL1       -0.4775
     23 C         143.5883  138.7512  155.9758 C.ar    1  UNL1        0.1574
     24 C         144.5049  137.7035  155.4171 C.ar    1  UNL1        0.0398
     25 C         144.1385  136.2528  155.5229 C.ar    1  UNL1        0.0193
     26 C         142.8554  135.8499  156.1874 C.ar    1  UNL1        0.0754
     27 N         141.9389  136.8976  156.7460 N.ar    1  UNL1       -0.2436
     28 C         142.3053  138.3483  156.6402 C.ar    1  UNL1        0.1352
     29 C         142.4890  134.3991  156.2931 C.3     1  UNL1        0.1186
     30 N         143.5449  133.3794  156.6013 N.3     1  UNL1       -0.2677
     31 C         144.0041  132.2818  155.6878 C.3     1  UNL1        0.0725
     32 C         145.0700  131.5023  156.3990 C.3     1  UNL1        0.0188
     33 C         145.2698  132.1179  157.7522 C.3     1  UNL1        0.0188
     34 C         144.3271  133.2781  157.8772 C.3     1  UNL1        0.0725
@<TRIPOS>BOND
     1    20    21    1
     2    21    14    1
     3    14    15   ar
     4    15    16   ar
     5    16    17   ar
     6    17     9    1
     7     9    10   ar
     8    10    11   ar
     9    11    12   ar
    10    12     1    1
    11     1     2    2
    12     1     3   am
    13     3     4    1
    14     4     5    1
    15     5     6    1
    16     6    22    1
    17    22    23    1
    18    23    24   ar
    19    24    25   ar
    20    25    26   ar
    21    26    29    1
    22    29    30    1
    23    30    31    1
    24    31    32    1
    25    32    33    1
    26    33    34    1
    27    26    27   ar
    28    27    28   ar
    29     6     7    1
    30     7     8    1
    31    12    13   ar
    32    17    18   ar
    33    18    19   ar
    34    19    14   ar
    35    13     9   ar
    36     8     3    1
    37    28    23   ar
    38    34    30    1
@<TRIPOS>MOLECULE
*****
 34 38 0 0 0
SMALL
GASTEIGER

@<TRIPOS>ATOM
      1 C         139.5348  140.8375  157.7298 C.2     1  UNL1        0.3045
      2 O         139.9901  142.0409  156.9588 O.2     1  UNL1       -0.2647
      3 N         138.9746  141.0000  159.1118 N.am    1  UNL1       -0.2720
      4 C         138.5193  139.7966  159.8828 C.3     1  UNL1        0.0976
      5 C         137.9592  139.9591  161.2647 C.3     1  UNL1        0.0651
      6 C         137.8545  141.3250  161.8757 C.3     1  UNL1        0.1694
      7 C         138.3098  142.5284  161.1047 C.3     1  UNL1        0.0651
      8 C         138.8699  142.3659  159.7227 C.3     1  UNL1        0.0976
      9 C         140.5124  137.3206  156.4103 C.ar    1  UNL1        0.2501
     10 N         139.0892  137.4188  155.9467 N.ar    1  UNL1       -0.1068
     11 N         138.5497  138.7482  156.3846 N.ar    1  UNL1       -0.1021
     12 C         139.6395  139.4716  157.1188 C.ar    1  UNL1        0.3042
     13 O         140.8525  138.5893  157.1346 O.2     1  UNL1       -0.4122
     14 C         143.2764  133.8324  155.7448 C.ar    1  UNL1        0.1387
     15 C         143.6505  134.9107  156.7181 C.ar    1  UNL1        0.0371
     16 C         142.7291  136.0734  156.9399 C.ar    1  UNL1        0.0078
     17 C         141.4337  136.1579  156.1885 C.ar    1  UNL1        0.0553
     18 C         141.0596  135.0796  155.2152 C.ar    1  UNL1        0.0078
     19 C         141.9810  133.9169  154.9934 C.ar    1  UNL1        0.0371
     20 C         143.9453  131.3683  156.2248 C.3     1  UNL1        0.2525
     21 O         144.1977  132.6697  155.5230 O.3     1  UNL1       -0.4714
     22 O         137.2943  141.4875  163.2577 O.3     1  UNL1       -0.4775
     23 C         138.1323  141.1399  164.4522 C.ar    1  UNL1        0.1574
     24 C         138.0521  139.7669  165.0507 C.ar    1  UNL1        0.0398
     25 C         138.8900  139.4193  166.2453 C.ar    1  UNL1        0.0193
     26 C         139.8083  140.4448  166.8413 C.ar    1  UNL1        0.0754
     27 N         139.8886  141.8179  166.2427 N.ar    1  UNL1       -0.2436
     28 C         139.0506  142.1654  165.0482 C.ar    1  UNL1        0.1352
     29 C         140.6463  140.0972  168.0359 C.3     1  UNL1        0.1186
     30 N         141.4213  141.1675  168.7456 N.3     1  UNL1       -0.2677
     31 C         140.8381  142.3328  169.4885 C.3     1  UNL1        0.0725
     32 C         141.9719  143.1459  170.0390 C.3     1  UNL1        0.0188
     33 C         143.2560  142.4833  169.6363 C.3     1  UNL1        0.0188
     34 C         142.9156  141.2606  168.8369 C.3     1  UNL1        0.0725
@<TRIPOS>BOND
     1    20    21    1
     2    21    14    1
     3    14    15   ar
     4    15    16   ar
     5    16    17   ar
     6    17     9    1
     7     9    10   ar
     8    10    11   ar
     9    11    12   ar
    10    12     1    1
    11     1     2    2
    12     1     3   am
    13     3     4    1
    14     4     5    1
    15     5     6    1
    16     6    22    1
    17    22    23    1
    18    23    24   ar
    19    24    25   ar
    20    25    26   ar
    21    26    29    1
    22    29    30    1
    23    30    31    1
    24    31    32    1
    25    32    33    1
    26    33    34    1
    27    26    27   ar
    28    27    28   ar
    29     6     7    1
    30     7     8    1
    31    12    13   ar
    32    17    18   ar
    33    18    19   ar
    34    19    14   ar
    35    13     9   ar
    36     8     3    1
    37    28    23   ar
    38    34    30    1
@<TRIPOS>MOLECULE
*****
 34 38 0 0 0
SMALL
GASTEIGER

@<TRIPOS>ATOM
      1 C         138.6937  139.2576  160.7905 C.2     1  UNL1        0.3045
      2 O         137.4144  139.7602  160.1899 O.2     1  UNL1       -0.2647
      3 N         139.8312  138.8517  159.9010 N.am    1  UNL1       -0.2720
      4 C         141.1105  138.3491  160.5016 C.3     1  UNL1        0.0976
      5 C         142.2480  137.9432  159.6121 C.3     1  UNL1        0.0651
      6 C         142.1062  138.0399  158.1219 C.3     1  UNL1        0.1694
      7 C         140.8269  138.5426  157.5213 C.3     1  UNL1        0.0651
      8 C         139.6894  138.9485  158.4109 C.3     1  UNL1        0.0976
      9 C         139.2806  139.7265  164.5986 C.ar    1  UNL1        0.2501
     10 N         138.8266  138.2977  164.5490 N.ar    1  UNL1       -0.1068
     11 N         138.5514  137.9481  163.1165 N.ar    1  UNL1       -0.1021
     12 C         138.8354  139.1609  162.2807 C.ar    1  UNL1        0.3042
     13 O         139.2861  140.2599  163.1966 O.2     1  UNL1       -0.4122
     14 C         140.4254  142.0112  168.3026 C.ar    1  UNL1        0.1387
     15 C         139.9833  140.5819  168.4097 C.ar    1  UNL1        0.0371
     16 C         139.6017  139.8203  167.1750 C.ar    1  UNL1        0.0078
     17 C         139.6622  140.4880  165.8332 C.ar    1  UNL1        0.0553
     18 C         140.1043  141.9174  165.7261 C.ar    1  UNL1        0.0078
     19 C         140.4859  142.6790  166.9608 C.ar    1  UNL1        0.0371
     20 C         140.8600  142.0737  170.8632 C.3     1  UNL1        0.2525
     21 O         140.8070  142.7728  169.5372 O.3     1  UNL1       -0.4714
     22 O         143.2438  137.6340  157.2324 O.3     1  UNL1       -0.4775
     23 C         143.1958  136.3235  156.5044 C.ar    1  UNL1        0.1574
     24 C         143.3950  135.0405  157.2556 C.ar    1  UNL1        0.0398
     25 C         143.3470  133.7299  156.5276 C.ar    1  UNL1        0.0193
     26 C         143.0999  133.7023  155.0483 C.ar    1  UNL1        0.0754
     27 N         142.9007  134.9852  154.2971 N.ar    1  UNL1       -0.2436
     28 C         142.9487  136.2958  155.0251 C.ar    1  UNL1        0.1352
     29 C         143.0519  132.3916  154.3203 C.3     1  UNL1        0.1186
     30 N         141.7338  131.7223  154.0666 N.3     1  UNL1       -0.2677
     31 C         140.8909  131.8730  152.8350 C.3     1  UNL1        0.0725
     32 C         139.6633  131.0286  153.0073 C.3     1  UNL1        0.0188
     33 C         139.7472  130.3560  154.3455 C.3     1  UNL1        0.0188
     34 C         141.0269  130.7848  155.0001 C.3     1  UNL1        0.0725
@<TRIPOS>BOND
     1    20    21    1
     2    21    14    1
     3    14    15   ar
     4    15    16   ar
     5    16    17   ar
     6    17     9    1
     7     9    10   ar
     8    10    11   ar
     9    11    12   ar
    10    12     1    1
    11     1     2    2
    12     1     3   am
    13     3     4    1
    14     4     5    1
    15     5     6    1
    16     6    22    1
    17    22    23    1
    18    23    24   ar
    19    24    25   ar
    20    25    26   ar
    21    26    29    1
    22    29    30    1
    23    30    31    1
    24    31    32    1
    25    32    33    1
    26    33    34    1
    27    26    27   ar
    28    27    28   ar
    29     6     7    1
    30     7     8    1
    31    12    13   ar
    32    17    18   ar
    33    18    19   ar
    34    19    14   ar
    35    13     9   ar
    36     8     3    1
    37    28    23   ar
    38    34    30    1
@<TRIPOS>MOLECULE
*****
 34 38 0 0 0
SMALL
GASTEIGER

@<TRIPOS>ATOM
      1 C         143.5221  143.0843  160.2890 C.2     1  UNL1        0.3045
      2 O         144.6651  142.2553  159.7827 O.2     1  UNL1       -0.2647
      3 N         142.4687  143.5698  159.3379 N.am    1  UNL1       -0.2720
      4 C         141.3257  144.3988  159.8441 C.3     1  UNL1        0.0976
      5 C         140.2723  144.8842  158.8931 C.3     1  UNL1        0.0651
      6 C         140.3618  144.5406  157.4357 C.3     1  UNL1        0.1694
      7 C         141.5048  143.7116  156.9295 C.3     1  UNL1        0.0651
      8 C         142.5582  143.2262  157.8806 C.3     1  UNL1        0.0976
      9 C         142.8855  143.3397  164.1093 C.ar    1  UNL1        0.2501
     10 N         143.7042  144.5733  163.8688 N.ar    1  UNL1       -0.1068
     11 N         144.0424  144.6278  162.4084 N.ar    1  UNL1       -0.1021
     12 C         143.4326  143.4279  161.7464 C.ar    1  UNL1        0.3042
     13 O         142.7176  142.6318  162.7976 O.2     1  UNL1       -0.4122
     14 C         141.2245  141.9982  168.0706 C.ar    1  UNL1        0.1387
     15 C         140.3042  142.5335  167.0140 C.ar    1  UNL1        0.0371
     16 C         140.8579  142.9806  165.6936 C.ar    1  UNL1        0.0078
     17 C         142.3318  142.8925  165.4297 C.ar    1  UNL1        0.0553
     18 C         143.2521  142.3572  166.4863 C.ar    1  UNL1        0.0078
     19 C         142.6985  141.9100  167.8068 C.ar    1  UNL1        0.0371
     20 C         139.5623  140.5416  169.4363 C.3     1  UNL1        0.2525
     21 O         140.6709  141.5510  169.3910 O.3     1  UNL1       -0.4714
     22 O         139.3083  145.0261  156.4846 O.3     1  UNL1       -0.4775
     23 C         139.5268  146.2882  155.7041 C.ar    1  UNL1        0.1574
     24 C         140.3863  146.2706  154.4749 C.ar    1  UNL1        0.0398
     25 C         140.6047  147.5327  153.6943 C.ar    1  UNL1        0.0193
     26 C         139.9636  148.8124  154.1429 C.ar    1  UNL1        0.0754
     27 N         139.1041  148.8301  155.3721 N.ar    1  UNL1       -0.2436
     28 C         138.8857  147.5680  156.1527 C.ar    1  UNL1        0.1352
     29 C         140.1821  150.0746  153.3623 C.3     1  UNL1        0.1186
     30 N         141.5452  150.6982  153.3107 N.3     1  UNL1       -0.2677
     31 C         142.1059  151.6753  154.3012 C.3     1  UNL1        0.0725
     32 C         143.4943  152.0351  153.8622 C.3     1  UNL1        0.0188
     33 C         143.7919  151.2805  152.6004 C.3     1  UNL1        0.0188
     34 C         142.5872  150.4542  152.2596 C.3     1  UNL1        0.0725
@<TRIPOS>BOND
     1    20    21    1
     2    21    14    1
     3    14    15   ar
     4    15    16   ar
     5    16    17   ar
     6    17     9    1
     7     9    10   ar
     8    10    11   ar
     9    11    12   ar
    10    12     1    1
    11     1     2    2
    12     1     3   am
    13     3     4    1
    14     4     5    1
    15     5     6    1
    16     6    22    1
    17    22    23    1
    18    23    24   ar
    19    24    25   ar
    20    25    26   ar
    21    26    29    1
    22    29    30    1
    23    30    31    1
    24    31    32    1
    25    32    33    1
    26    33    34    1
    27    26    27   ar
    28    27    28   ar
    29     6     7    1
    30     7     8    1
    31    12    13   ar
    32    17    18   ar
    33    18    19   ar
    34    19    14   ar
    35    13     9   ar
    36     8     3    1
    37    28    23   ar
    38    34    30    1
@<TRIPOS>MOLECULE
*****
 34 38 0 0 0
SMALL
GASTEIGER

@<TRIPOS>ATOM
      1 C         139.8535  145.2149  162.0087 C.2     1  UNL1        0.3045
      2 O         140.3554  146.6223  162.1407 O.2     1  UNL1       -0.2647
      3 N         139.7776  144.5695  160.6568 N.am    1  UNL1       -0.2720
      4 C         139.2758  143.1621  160.5247 C.3     1  UNL1        0.0976
      5 C         139.1999  142.5167  159.1729 C.3     1  UNL1        0.0651
      6 C         139.6258  143.2786  157.9530 C.3     1  UNL1        0.1694
      7 C         140.1277  144.6859  158.0851 C.3     1  UNL1        0.0651
      8 C         140.2036  145.3314  159.4370 C.3     1  UNL1        0.0976
      9 C         139.4827  143.0710  165.2229 C.ar    1  UNL1        0.2501
     10 N         138.0617  143.4901  164.9886 N.ar    1  UNL1       -0.1068
     11 N         138.0276  144.3443  163.7560 N.ar    1  UNL1       -0.1021
     12 C         139.4276  144.4530  163.2286 C.ar    1  UNL1        0.3042
     13 O         140.3269  143.6660  164.1352 O.2     1  UNL1       -0.4122
     14 C         140.9548  140.4826  168.5969 C.ar    1  UNL1        0.1387
     15 C         140.5043  139.8546  167.3114 C.ar    1  UNL1        0.0371
     16 C         140.0136  140.7174  166.1867 C.ar    1  UNL1        0.0078
     17 C         139.9734  142.2082  166.3476 C.ar    1  UNL1        0.0553
     18 C         140.4239  142.8362  167.6331 C.ar    1  UNL1        0.0078
     19 C         140.9146  141.9734  168.7578 C.ar    1  UNL1        0.0371
     20 C         142.7639  139.9149  170.3730 C.3     1  UNL1        0.2525
     21 O         141.4455  139.6198  169.7215 O.3     1  UNL1       -0.4714
     22 O         139.5499  142.6331  156.6011 O.3     1  UNL1       -0.4775
     23 C         138.2748  141.9844  156.1503 C.ar    1  UNL1        0.1574
     24 C         137.1209  142.8308  155.7007 C.ar    1  UNL1        0.0398
     25 C         135.8458  142.1821  155.2498 C.ar    1  UNL1        0.0193
     26 C         135.7246  140.6870  155.2486 C.ar    1  UNL1        0.0754
     27 N         136.8785  139.8406  155.6982 N.ar    1  UNL1       -0.2436
     28 C         138.1536  140.4893  156.1490 C.ar    1  UNL1        0.1352
     29 C         134.4495  140.0383  154.7977 C.3     1  UNL1        0.1186
     30 N         133.3390  139.8049  155.7786 N.3     1  UNL1       -0.2677
     31 C         133.2190  138.6379  156.7134 C.3     1  UNL1        0.0725
     32 C         131.9594  138.8094  157.5095 C.3     1  UNL1        0.0188
     33 C         131.3008  140.0824  157.0669 C.3     1  UNL1        0.0188
     34 C         132.1535  140.6976  155.9971 C.3     1  UNL1        0.0725
@<TRIPOS>BOND
     1    20    21    1
     2    21    14    1
     3    14    15   ar
     4    15    16   ar
     5    16    17   ar
     6    17     9    1
     7     9    10   ar
     8    10    11   ar
     9    11    12   ar
    10    12     1    1
    11     1     2    2
    12     1     3   am
    13     3     4    1
    14     4     5    1
    15     5     6    1
    16     6    22    1
    17    22    23    1
    18    23    24   ar
    19    24    25   ar
    20    25    26   ar
    21    26    29    1
    22    29    30    1
    23    30    31    1
    24    31    32    1
    25    32    33    1
    26    33    34    1
    27    26    27   ar
    28    27    28   ar
    29     6     7    1
    30     7     8    1
    31    12    13   ar
    32    17    18   ar
    33    18    19   ar
    34    19    14   ar
    35    13     9   ar
    36     8     3    1
    37    28    23   ar
    38    34    30    1
