@<TRIPOS>MOLECULE
*****
 31 34 0 0 0
SMALL
GASTEIGER

@<TRIPOS>ATOM
      1 C         143.0276  139.5594  159.4047 C.2     1  UNL1        0.2260
      2 O         144.2713  139.7186  158.5815 O.2     1  UNL1       -0.2748
      3 N         142.0057  138.5279  159.0279 N.am    1  UNL1       -0.2839
      4 H         141.1894  138.4233  159.5683 H       1  UNL1        0.1549
      5 C         142.2276  137.6557  157.8279 C.ar    1  UNL1        0.0504
      6 C         142.0653  138.2223  156.4485 C.ar    1  UNL1        0.0155
      7 C         142.2873  137.3501  155.2485 C.ar    1  UNL1        0.0127
      8 C         142.6715  135.9113  155.4279 C.ar    1  UNL1        0.0592
      9 CL        142.8934  135.0391  154.2279 Cl      1  UNL1       -0.0822
     10 C         142.8338  135.3447  156.8072 C.ar    1  UNL1        0.0295
     11 C         142.6119  136.2169  158.0072 C.ar    1  UNL1        0.0170
     12 C         143.2180  133.9059  156.9865 C.ar    1  UNL1        0.0822
     13 C         144.4947  133.5526  157.6903 C.ar    1  UNL1        0.0192
     14 C         144.8789  132.1137  157.8696 C.ar    1  UNL1        0.0031
     15 C         143.9865  131.0282  157.3452 C.ar    1  UNL1        0.0207
     16 C         142.7098  131.3815  156.6414 C.ar    1  UNL1        0.0988
     17 N         142.3256  132.8203  156.4621 N.ar    1  UNL1       -0.2438
     18 C         142.8057  140.4316  160.6047 C.3     1  UNL1        0.0823
     19 C         142.3589  141.8524  160.4268 C.3     1  UNL1        0.0100
     20 C         138.1804  138.0190  162.0316 C.3     1  UNL1        0.0521
     21 C         139.5053  138.2107  162.7083 C.ar    1  UNL1        0.0589
     22 C         139.7301  137.6620  164.0861 C.ar    1  UNL1        0.0144
     23 C         141.0550  137.8537  164.7627 C.ar    1  UNL1       -0.0019
     24 C         142.1551  138.5940  164.0616 C.ar    1  UNL1       -0.0089
     25 C         141.9303  139.1426  162.6838 C.ar    1  UNL1        0.0547
     26 N         140.6054  138.9509  162.0071 N.ar    1  UNL1       -0.2543
     27 C         143.0304  139.8829  161.9825 C.3     1  UNL1        0.0485
     28 C         144.3554  140.0746  162.6592 C.3     1  UNL1        0.0067
     29 C         144.5801  139.5259  164.0371 C.3     1  UNL1        0.0048
     30 C         143.4800  138.7857  164.7382 C.3     1  UNL1        0.0235
     31 C         143.7048  138.2370  166.1161 C.3     1  UNL1        0.0047
@<TRIPOS>BOND
     1    20    21    1
     2    21    22   ar
     3    22    23   ar
     4    23    24   ar
     5    24    25   ar
     6    25    26   ar
     7    25    27    1
     8    27    18    1
     9    18    19    1
    10    18     1    1
    11     1     2    2
    12     1     3   am
    13     3     5    1
    14     5     6   ar
    15     6     7   ar
    16     7     8   ar
    17     8     9    1
    18     8    10   ar
    19    10    12    1
    20    12    13   ar
    21    13    14   ar
    22    14    15   ar
    23    15    16   ar
    24    16    17   ar
    25    10    11   ar
    26    27    28    1
    27    28    29    1
    28    29    30    1
    29    30    31    1
    30    26    21   ar
    31    11     5   ar
    32    30    24    1
    33    17    12   ar
    34     3     4    1
@<TRIPOS>MOLECULE
*****
 31 34 0 0 0
SMALL
GASTEIGER

@<TRIPOS>ATOM
      1 C         139.2983  139.8156  163.0965 C.2     1  UNL1        0.2260
      2 O         138.3743  140.9479  163.4342 O.2     1  UNL1       -0.2748
      3 N         139.8794  138.9699  164.1906 N.am    1  UNL1       -0.2839
      4 H         140.4858  138.2267  163.9689 H       1  UNL1        0.1549
      5 C         139.5364  139.2565  165.6225 C.ar    1  UNL1        0.0504
      6 C         138.2806  138.6942  166.2199 C.ar    1  UNL1        0.0155
      7 C         137.9377  138.9808  167.6518 C.ar    1  UNL1        0.0127
      8 C         138.8505  139.8297  168.4862 C.ar    1  UNL1        0.0592
      9 CL        138.5076  140.1163  169.9181 Cl      1  UNL1       -0.0822
     10 C         140.1062  140.3919  167.8888 C.ar    1  UNL1        0.0295
     11 C         140.4492  140.1053  166.4569 C.ar    1  UNL1        0.0170
     12 C         141.0190  141.2408  168.7232 C.ar    1  UNL1        0.0822
     13 C         140.5900  142.6158  169.1418 C.ar    1  UNL1        0.0192
     14 C         141.5029  143.4647  169.9763 C.ar    1  UNL1        0.0031
     15 C         142.8446  142.9385  170.3920 C.ar    1  UNL1        0.0207
     16 C         143.2735  141.5634  169.9734 C.ar    1  UNL1        0.0988
     17 N         142.3608  140.7146  169.1390 N.ar    1  UNL1       -0.2438
     18 C         139.6412  139.5290  161.6646 C.3     1  UNL1        0.0823
     19 C         138.9709  138.3963  160.9451 C.3     1  UNL1        0.0100
     20 C         144.1548  139.2827  164.6338 C.3     1  UNL1        0.0521
     21 C         143.7864  139.9788  163.3573 C.ar    1  UNL1        0.0589
     22 C         144.7996  140.8249  162.6449 C.ar    1  UNL1        0.0144
     23 C         144.4312  141.5210  161.3683 C.ar    1  UNL1       -0.0019
     24 C         143.0495  141.3711  160.8041 C.ar    1  UNL1       -0.0089
     25 C         142.0362  140.5250  161.5165 C.ar    1  UNL1        0.0547
     26 N         142.4047  139.8289  162.7930 N.ar    1  UNL1       -0.2543
     27 C         140.6545  140.3751  160.9522 C.3     1  UNL1        0.0485
     28 C         140.2860  141.0712  159.6757 C.3     1  UNL1        0.0067
     29 C         141.2993  141.9173  158.9633 C.3     1  UNL1        0.0048
     30 C         142.6810  142.0672  159.5275 C.3     1  UNL1        0.0235
     31 C         143.6943  142.9133  158.8152 C.3     1  UNL1        0.0047
@<TRIPOS>BOND
     1    20    21    1
     2    21    22   ar
     3    22    23   ar
     4    23    24   ar
     5    24    25   ar
     6    25    26   ar
     7    25    27    1
     8    27    18    1
     9    18    19    1
    10    18     1    1
    11     1     2    2
    12     1     3   am
    13     3     5    1
    14     5     6   ar
    15     6     7   ar
    16     7     8   ar
    17     8     9    1
    18     8    10   ar
    19    10    12    1
    20    12    13   ar
    21    13    14   ar
    22    14    15   ar
    23    15    16   ar
    24    16    17   ar
    25    10    11   ar
    26    27    28    1
    27    28    29    1
    28    29    30    1
    29    30    31    1
    30    26    21   ar
    31    11     5   ar
    32    30    24    1
    33    17    12   ar
    34     3     4    1
@<TRIPOS>MOLECULE
*****
 31 34 0 0 0
SMALL
GASTEIGER

@<TRIPOS>ATOM
      1 C         139.3672  140.2655  162.2058 C.2     1  UNL1        0.2260
      2 O         138.5298  139.4122  163.1117 O.2     1  UNL1       -0.2748
      3 N         140.7398  140.6924  162.6347 N.am    1  UNL1       -0.2839
      4 H         141.2894  141.2524  162.0401 H       1  UNL1        0.1549
      5 C         141.2750  140.2659  163.9695 C.ar    1  UNL1        0.0504
      6 C         142.3259  139.1986  164.0499 C.ar    1  UNL1        0.0155
      7 C         142.8611  138.7721  165.3847 C.ar    1  UNL1        0.0127
      8 C         142.3453  139.4129  166.6391 C.ar    1  UNL1        0.0592
      9 CL        142.8805  138.9864  167.9739 Cl      1  UNL1       -0.0822
     10 C         141.2944  140.4801  166.5586 C.ar    1  UNL1        0.0295
     11 C         140.7592  140.9066  165.2238 C.ar    1  UNL1        0.0170
     12 C         140.7787  141.1209  167.8130 C.ar    1  UNL1        0.0822
     13 C         141.1658  142.5306  168.1489 C.ar    1  UNL1        0.0192
     14 C         140.6500  143.1713  169.4033 C.ar    1  UNL1        0.0031
     15 C         139.7471  142.4023  170.3217 C.ar    1  UNL1        0.0207
     16 C         139.3600  140.9926  169.9857 C.ar    1  UNL1        0.0988
     17 N         139.8757  140.3519  168.7314 N.ar    1  UNL1       -0.2438
     18 C         138.8320  140.6920  160.8710 C.3     1  UNL1        0.0823
     19 C         137.7196  139.9187  160.2271 C.3     1  UNL1        0.0100
     20 C         138.6934  144.7142  164.4839 C.3     1  UNL1        0.0521
     21 C         139.1609  144.6085  163.0625 C.ar    1  UNL1        0.0589
     22 C         139.7381  145.8083  162.3717 C.ar    1  UNL1        0.0144
     23 C         140.2056  145.7027  160.9503 C.ar    1  UNL1       -0.0019
     24 C         140.0959  144.3972  160.2198 C.ar    1  UNL1       -0.0089
     25 C         139.5188  143.1974  160.9107 C.ar    1  UNL1        0.0547
     26 N         139.0513  143.3031  162.3320 N.ar    1  UNL1       -0.2543
     27 C         139.4091  141.8918  160.1802 C.3     1  UNL1        0.0485
     28 C         139.8766  141.7862  158.7588 C.3     1  UNL1        0.0067
     29 C         140.4538  142.9861  158.0679 C.3     1  UNL1        0.0048
     30 C         140.5634  144.2915  158.7984 C.3     1  UNL1        0.0235
     31 C         141.1406  145.4914  158.1076 C.3     1  UNL1        0.0047
@<TRIPOS>BOND
     1    20    21    1
     2    21    22   ar
     3    22    23   ar
     4    23    24   ar
     5    24    25   ar
     6    25    26   ar
     7    25    27    1
     8    27    18    1
     9    18    19    1
    10    18     1    1
    11     1     2    2
    12     1     3   am
    13     3     5    1
    14     5     6   ar
    15     6     7   ar
    16     7     8   ar
    17     8     9    1
    18     8    10   ar
    19    10    12    1
    20    12    13   ar
    21    13    14   ar
    22    14    15   ar
    23    15    16   ar
    24    16    17   ar
    25    10    11   ar
    26    27    28    1
    27    28    29    1
    28    29    30    1
    29    30    31    1
    30    26    21   ar
    31    11     5   ar
    32    30    24    1
    33    17    12   ar
    34     3     4    1
@<TRIPOS>MOLECULE
*****
 31 34 0 0 0
SMALL
GASTEIGER

@<TRIPOS>ATOM
      1 C         139.8260  143.9589  163.1417 C.2     1  UNL1        0.2260
      2 O         138.8890  144.5229  164.1682 O.2     1  UNL1       -0.2748
      3 N         140.2509  142.5225  163.2228 N.am    1  UNL1       -0.2839
      4 H         140.8659  142.1523  162.5491 H       1  UNL1        0.1549
      5 C         139.7387  141.6503  164.3305 C.ar    1  UNL1        0.0504
      6 C         138.5811  140.7285  164.0849 C.ar    1  UNL1        0.0155
      7 C         138.0688  139.8562  165.1926 C.ar    1  UNL1        0.0127
      8 C         138.7142  139.9059  166.5458 C.ar    1  UNL1        0.0592
      9 CL        138.2020  139.0337  167.6534 Cl      1  UNL1       -0.0822
     10 C         139.8718  140.8277  166.7913 C.ar    1  UNL1        0.0295
     11 C         140.3840  141.6999  165.6836 C.ar    1  UNL1        0.0170
     12 C         140.5171  140.8773  168.1444 C.ar    1  UNL1        0.0822
     13 C         140.1863  141.9914  169.0927 C.ar    1  UNL1        0.0192
     14 C         140.8317  142.0409  170.4460 C.ar    1  UNL1        0.0031
     15 C         141.8078  140.9764  170.8508 C.ar    1  UNL1        0.0207
     16 C         142.1386  139.8623  169.9024 C.ar    1  UNL1        0.0988
     17 N         141.4933  139.8127  168.5493 N.ar    1  UNL1       -0.2438
     18 C         140.3383  144.8311  162.0341 C.3     1  UNL1        0.0823
     19 C         139.8856  146.2576  161.9324 C.3     1  UNL1        0.0100
     20 C         144.5536  142.9701  164.8657 C.3     1  UNL1        0.0521
     21 C         144.2233  143.0196  163.4033 C.ar    1  UNL1        0.0589
     22 C         145.1881  142.4654  162.3974 C.ar    1  UNL1        0.0144
     23 C         144.8579  142.5150  160.9350 C.ar    1  UNL1       -0.0019
     24 C         143.5629  143.1188  160.4786 C.ar    1  UNL1       -0.0089
     25 C         142.5981  143.6730  161.4845 C.ar    1  UNL1        0.0547
     26 N         142.9283  143.6234  162.9469 N.ar    1  UNL1       -0.2543
     27 C         141.3030  144.2768  161.0281 C.3     1  UNL1        0.0485
     28 C         140.9728  144.3264  159.5658 C.3     1  UNL1        0.0067
     29 C         141.9377  143.7721  158.5598 C.3     1  UNL1        0.0048
     30 C         143.2327  143.1683  159.0162 C.3     1  UNL1        0.0235
     31 C         144.1975  142.6141  158.0103 C.3     1  UNL1        0.0047
@<TRIPOS>BOND
     1    20    21    1
     2    21    22   ar
     3    22    23   ar
     4    23    24   ar
     5    24    25   ar
     6    25    26   ar
     7    25    27    1
     8    27    18    1
     9    18    19    1
    10    18     1    1
    11     1     2    2
    12     1     3   am
    13     3     5    1
    14     5     6   ar
    15     6     7   ar
    16     7     8   ar
    17     8     9    1
    18     8    10   ar
    19    10    12    1
    20    12    13   ar
    21    13    14   ar
    22    14    15   ar
    23    15    16   ar
    24    16    17   ar
    25    10    11   ar
    26    27    28    1
    27    28    29    1
    28    29    30    1
    29    30    31    1
    30    26    21   ar
    31    11     5   ar
    32    30    24    1
    33    17    12   ar
    34     3     4    1
@<TRIPOS>MOLECULE
*****
 31 34 0 0 0
SMALL
GASTEIGER

@<TRIPOS>ATOM
      1 C         141.3953  138.6882  162.5876 C.2     1  UNL1        0.2260
      2 O         140.1953  139.0924  161.7835 O.2     1  UNL1       -0.2748
      3 N         142.7474  138.6319  161.9405 N.am    1  UNL1       -0.2839
      4 H         143.5351  138.3666  162.4682 H       1  UNL1        0.1549
      5 C         142.8994  138.9797  160.4893 C.ar    1  UNL1        0.0504
      6 C         143.2491  140.3818  160.0867 C.ar    1  UNL1        0.0155
      7 C         143.4011  140.7296  158.6355 C.ar    1  UNL1        0.0127
      8 C         143.2034  139.6753  157.5869 C.ar    1  UNL1        0.0592
      9 CL        143.3554  140.0231  156.1357 Cl      1  UNL1       -0.0822
     10 C         142.8538  138.2733  157.9895 C.ar    1  UNL1        0.0295
     11 C         142.7018  137.9255  159.4407 C.ar    1  UNL1        0.0170
     12 C         142.6561  137.2191  156.9409 C.ar    1  UNL1        0.0822
     13 C         141.2722  136.8716  156.4783 C.ar    1  UNL1        0.0192
     14 C         141.0746  135.8173  155.4296 C.ar    1  UNL1        0.0031
     15 C         142.2609  135.1107  154.8437 C.ar    1  UNL1        0.0207
     16 C         143.6448  135.4582  155.3063 C.ar    1  UNL1        0.0988
     17 N         143.8424  136.5124  156.3549 N.ar    1  UNL1       -0.2438
     18 C         141.2433  138.3404  164.0387 C.3     1  UNL1        0.0823
     19 C         141.2299  136.9032  164.4681 C.3     1  UNL1        0.0100
     20 C         145.5661  141.5320  163.4245 C.3     1  UNL1        0.0521
     21 C         144.3814  141.5511  164.3444 C.ar    1  UNL1        0.0589
     22 C         144.2428  142.6405  165.3662 C.ar    1  UNL1        0.0144
     23 C         143.0582  142.6596  166.2861 C.ar    1  UNL1       -0.0019
     24 C         142.0121  141.5894  166.1842 C.ar    1  UNL1       -0.0089
     25 C         142.1507  140.5000  165.1625 C.ar    1  UNL1        0.0547
     26 N         143.3354  140.4809  164.2425 N.ar    1  UNL1       -0.2543
     27 C         141.1047  139.4298  165.0605 C.3     1  UNL1        0.0485
     28 C         139.9200  139.4489  165.9804 C.3     1  UNL1        0.0067
     29 C         139.7814  140.5383  167.0023 C.3     1  UNL1        0.0048
     30 C         140.8275  141.6085  167.1042 C.3     1  UNL1        0.0235
     31 C         140.6889  142.6978  168.1259 C.3     1  UNL1        0.0047
@<TRIPOS>BOND
     1    20    21    1
     2    21    22   ar
     3    22    23   ar
     4    23    24   ar
     5    24    25   ar
     6    25    26   ar
     7    25    27    1
     8    27    18    1
     9    18    19    1
    10    18     1    1
    11     1     2    2
    12     1     3   am
    13     3     5    1
    14     5     6   ar
    15     6     7   ar
    16     7     8   ar
    17     8     9    1
    18     8    10   ar
    19    10    12    1
    20    12    13   ar
    21    13    14   ar
    22    14    15   ar
    23    15    16   ar
    24    16    17   ar
    25    10    11   ar
    26    27    28    1
    27    28    29    1
    28    29    30    1
    29    30    31    1
    30    26    21   ar
    31    11     5   ar
    32    30    24    1
    33    17    12   ar
    34     3     4    1
@<TRIPOS>MOLECULE
*****
 31 34 0 0 0
SMALL
GASTEIGER

@<TRIPOS>ATOM
      1 C         140.0944  139.0480  163.0018 C.2     1  UNL1        0.2260
      2 O         140.7132  137.9018  163.7456 O.2     1  UNL1       -0.2748
      3 N         139.3429  140.1091  163.7498 N.am    1  UNL1       -0.2839
      4 H         138.9368  140.8614  163.2616 H       1  UNL1        0.1549
      5 C         139.2104  140.0240  165.2415 C.ar    1  UNL1        0.0504
      6 C         138.1407  139.1676  165.8518 C.ar    1  UNL1        0.0155
      7 C         138.0082  139.0825  167.3435 C.ar    1  UNL1        0.0127
      8 C         138.9454  139.8538  168.2249 C.ar    1  UNL1        0.0592
      9 CL        138.8129  139.7686  169.7166 Cl      1  UNL1       -0.0822
     10 C         140.0150  140.7101  167.6146 C.ar    1  UNL1        0.0295
     11 C         140.1475  140.7953  166.1229 C.ar    1  UNL1        0.0170
     12 C         140.9521  141.4814  168.4961 C.ar    1  UNL1        0.0822
     13 C         140.5110  142.7787  169.1062 C.ar    1  UNL1        0.0192
     14 C         141.4482  143.5500  169.9877 C.ar    1  UNL1        0.0031
     15 C         142.8265  143.0239  170.2589 C.ar    1  UNL1        0.0207
     16 C         143.2676  141.7265  169.6488 C.ar    1  UNL1        0.0988
     17 N         142.3305  140.9553  168.7674 N.ar    1  UNL1       -0.2438
     18 C         140.2269  139.1331  161.5101 C.3     1  UNL1        0.0823
     19 C         139.2657  138.3923  160.6283 C.3     1  UNL1        0.0100
     20 C         138.8712  144.2958  162.3809 C.3     1  UNL1        0.0521
     21 C         140.0303  143.6245  161.7058 C.ar    1  UNL1        0.0589
     22 C         141.1239  144.4504  161.0959 C.ar    1  UNL1        0.0144
     23 C         142.2830  143.7791  160.4207 C.ar    1  UNL1       -0.0019
     24 C         142.3485  142.2819  160.3555 C.ar    1  UNL1       -0.0089
     25 C         141.2550  141.4561  160.9654 C.ar    1  UNL1        0.0547
     26 N         140.0958  142.1274  161.6405 N.ar    1  UNL1       -0.2543
     27 C         141.3205  139.9589  160.9002 C.3     1  UNL1        0.0485
     28 C         142.4796  139.2876  160.2251 C.3     1  UNL1        0.0067
     29 C         143.5732  140.1135  159.6152 C.3     1  UNL1        0.0048
     30 C         143.5077  141.6107  159.6804 C.3     1  UNL1        0.0235
     31 C         144.6012  142.4365  159.0705 C.3     1  UNL1        0.0047
@<TRIPOS>BOND
     1    20    21    1
     2    21    22   ar
     3    22    23   ar
     4    23    24   ar
     5    24    25   ar
     6    25    26   ar
     7    25    27    1
     8    27    18    1
     9    18    19    1
    10    18     1    1
    11     1     2    2
    12     1     3   am
    13     3     5    1
    14     5     6   ar
    15     6     7   ar
    16     7     8   ar
    17     8     9    1
    18     8    10   ar
    19    10    12    1
    20    12    13   ar
    21    13    14   ar
    22    14    15   ar
    23    15    16   ar
    24    16    17   ar
    25    10    11   ar
    26    27    28    1
    27    28    29    1
    28    29    30    1
    29    30    31    1
    30    26    21   ar
    31    11     5   ar
    32    30    24    1
    33    17    12   ar
    34     3     4    1
@<TRIPOS>MOLECULE
*****
 31 34 0 0 0
SMALL
GASTEIGER

@<TRIPOS>ATOM
      1 C         139.3751  140.1111  158.7765 C.2     1  UNL1        0.2260
      2 O         139.1775  138.7484  158.1815 O.2     1  UNL1       -0.2748
      3 N         138.6809  141.2986  158.1780 N.am    1  UNL1       -0.2839
      4 H         138.8106  142.1930  158.5685 H       1  UNL1        0.1549
      5 C         137.7892  141.1233  156.9847 C.ar    1  UNL1        0.0504
      6 C         138.3397  141.3145  155.6025 C.ar    1  UNL1        0.0155
      7 C         137.4480  141.1393  154.4091 C.ar    1  UNL1        0.0127
      8 C         136.0057  140.7727  154.5980 C.ar    1  UNL1        0.0592
      9 CL        135.1139  140.5974  153.4046 Cl      1  UNL1       -0.0822
     10 C         135.4552  140.5815  155.9801 C.ar    1  UNL1        0.0295
     11 C         136.3470  140.7568  157.1735 C.ar    1  UNL1        0.0170
     12 C         134.0130  140.2150  156.1689 C.ar    1  UNL1        0.0822
     13 C         132.9361  141.1874  155.7888 C.ar    1  UNL1        0.0192
     14 C         131.4938  140.8209  155.9776 C.ar    1  UNL1        0.0031
     15 C         131.1286  139.4819  156.5466 C.ar    1  UNL1        0.0207
     16 C         132.2055  138.5094  156.9267 C.ar    1  UNL1        0.0988
     17 N         133.6477  138.8760  156.7379 N.ar    1  UNL1       -0.2438
     18 C         140.2668  140.2864  159.9698 C.3     1  UNL1        0.0823
     19 C         141.5197  141.1034  159.8563 C.3     1  UNL1        0.0100
     20 C         137.8086  144.1157  162.8927 C.3     1  UNL1        0.0521
     21 C         138.1524  142.6771  163.1421 C.ar    1  UNL1        0.0589
     22 C         137.7913  142.0353  164.4489 C.ar    1  UNL1        0.0144
     23 C         138.1350  140.5967  164.6983 C.ar    1  UNL1       -0.0019
     24 C         138.8398  139.7998  163.6409 C.ar    1  UNL1       -0.0089
     25 C         139.2009  140.4415  162.3341 C.ar    1  UNL1        0.0547
     26 N         138.8572  141.8802  162.0847 N.ar    1  UNL1       -0.2543
     27 C         139.9057  139.6446  161.2766 C.3     1  UNL1        0.0485
     28 C         140.2495  138.2060  161.5260 C.3     1  UNL1        0.0067
     29 C         139.8884  137.5643  162.8329 C.3     1  UNL1        0.0048
     30 C         139.1836  138.3612  163.8903 C.3     1  UNL1        0.0235
     31 C         138.8225  137.7195  165.1971 C.3     1  UNL1        0.0047
@<TRIPOS>BOND
     1    20    21    1
     2    21    22   ar
     3    22    23   ar
     4    23    24   ar
     5    24    25   ar
     6    25    26   ar
     7    25    27    1
     8    27    18    1
     9    18    19    1
    10    18     1    1
    11     1     2    2
    12     1     3   am
    13     3     5    1
    14     5     6   ar
    15     6     7   ar
    16     7     8   ar
    17     8     9    1
    18     8    10   ar
    19    10    12    1
    20    12    13   ar
    21    13    14   ar
    22    14    15   ar
    23    15    16   ar
    24    16    17   ar
    25    10    11   ar
    26    27    28    1
    27    28    29    1
    28    29    30    1
    29    30    31    1
    30    26    21   ar
    31    11     5   ar
    32    30    24    1
    33    17    12   ar
    34     3     4    1
@<TRIPOS>MOLECULE
*****
 31 34 0 0 0
SMALL
GASTEIGER

@<TRIPOS>ATOM
      1 C         138.7289  140.1323  162.9889 C.2     1  UNL1        0.2260
      2 O         137.5424  140.9014  163.4896 O.2     1  UNL1       -0.2748
      3 N         139.6657  139.4808  163.9626 N.am    1  UNL1       -0.2839
      4 H         140.4445  138.9760  163.6339 H       1  UNL1        0.1549
      5 C         139.4161  139.5985  165.4369 C.ar    1  UNL1        0.0504
      6 C         138.2510  138.8878  166.0594 C.ar    1  UNL1        0.0155
      7 C         138.0013  139.0055  167.5338 C.ar    1  UNL1        0.0127
      8 C         138.9168  139.8340  168.3857 C.ar    1  UNL1        0.0592
      9 CL        138.6671  139.9517  169.8601 Cl      1  UNL1       -0.0822
     10 C         140.0818  140.5447  167.7632 C.ar    1  UNL1        0.0295
     11 C         140.3315  140.4269  166.2888 C.ar    1  UNL1        0.0170
     12 C         140.9972  141.3731  168.6151 C.ar    1  UNL1        0.0822
     13 C         142.3875  140.8927  168.9089 C.ar    1  UNL1        0.0192
     14 C         143.3030  141.7211  169.7608 C.ar    1  UNL1        0.0031
     15 C         142.8281  143.0299  170.3189 C.ar    1  UNL1        0.0207
     16 C         141.4378  143.5103  170.0251 C.ar    1  UNL1        0.0988
     17 N         140.5224  142.6819  169.1733 N.ar    1  UNL1       -0.2438
     18 C         138.9785  140.0145  161.5145 C.3     1  UNL1        0.0823
     19 C         138.9273  138.6706  160.8501 C.3     1  UNL1        0.0100
     20 C         142.6810  142.7904  164.3139 C.3     1  UNL1        0.0521
     21 C         141.9810  143.0160  163.0065 C.ar    1  UNL1        0.0589
     22 C         142.2819  144.2421  162.1965 C.ar    1  UNL1        0.0144
     23 C         141.5819  144.4677  160.8892 C.ar    1  UNL1       -0.0019
     24 C         140.5811  143.4673  160.3919 C.ar    1  UNL1       -0.0089
     25 C         140.2802  142.2412  161.2018 C.ar    1  UNL1        0.0547
     26 N         140.9802  142.0155  162.5092 N.ar    1  UNL1       -0.2543
     27 C         139.2794  141.2406  160.7045 C.3     1  UNL1        0.0485
     28 C         138.5794  141.4663  159.3972 C.3     1  UNL1        0.0067
     29 C         138.8803  142.6925  158.5872 C.3     1  UNL1        0.0048
     30 C         139.8811  143.6929  159.0845 C.3     1  UNL1        0.0235
     31 C         140.1819  144.9190  158.2745 C.3     1  UNL1        0.0047
@<TRIPOS>BOND
     1    20    21    1
     2    21    22   ar
     3    22    23   ar
     4    23    24   ar
     5    24    25   ar
     6    25    26   ar
     7    25    27    1
     8    27    18    1
     9    18    19    1
    10    18     1    1
    11     1     2    2
    12     1     3   am
    13     3     5    1
    14     5     6   ar
    15     6     7   ar
    16     7     8   ar
    17     8     9    1
    18     8    10   ar
    19    10    12    1
    20    12    13   ar
    21    13    14   ar
    22    14    15   ar
    23    15    16   ar
    24    16    17   ar
    25    10    11   ar
    26    27    28    1
    27    28    29    1
    28    29    30    1
    29    30    31    1
    30    26    21   ar
    31    11     5   ar
    32    30    24    1
    33    17    12   ar
    34     3     4    1
@<TRIPOS>MOLECULE
*****
 31 34 0 0 0
SMALL
GASTEIGER

@<TRIPOS>ATOM
      1 C         138.6181  141.2154  162.9122 C.2     1  UNL1        0.2260
      2 O         137.7234  140.0270  162.7186 O.2     1  UNL1       -0.2748
      3 N         139.4644  141.7099  161.7767 N.am    1  UNL1       -0.2839
      4 H         140.0516  142.4898  161.9037 H       1  UNL1        0.1549
      5 C         139.4161  141.0160  160.4477 C.ar    1  UNL1        0.0504
      6 C         140.3958  139.9237  160.1359 C.ar    1  UNL1        0.0155
      7 C         140.3475  139.2298  158.8069 C.ar    1  UNL1        0.0127
      8 C         139.3195  139.6282  157.7898 C.ar    1  UNL1        0.0592
      9 CL        139.2712  138.9343  156.4608 Cl      1  UNL1       -0.0822
     10 C         138.3399  140.7204  158.1016 C.ar    1  UNL1        0.0295
     11 C         138.3882  141.4143  159.4306 C.ar    1  UNL1        0.0170
     12 C         137.3120  141.1188  157.0845 C.ar    1  UNL1        0.0822
     13 C         137.5565  142.3010  156.1942 C.ar    1  UNL1        0.0192
     14 C         136.5285  142.6994  155.1771 C.ar    1  UNL1        0.0031
     15 C         135.2560  141.9155  155.0501 C.ar    1  UNL1        0.0207
     16 C         135.0114  140.7332  155.9404 C.ar    1  UNL1        0.0988
     17 N         136.0393  140.3349  156.9575 N.ar    1  UNL1       -0.2438
     18 C         138.6663  141.9092  164.2412 C.3     1  UNL1        0.0823
     19 C         137.7279  143.0434  164.5296 C.3     1  UNL1        0.0100
     20 C         143.1880  144.7257  163.3073 C.3     1  UNL1        0.0521
     21 C         142.7976  143.6915  164.3211 C.ar    1  UNL1        0.0589
     22 C         143.7843  143.2513  165.3616 C.ar    1  UNL1        0.0144
     23 C         143.3939  142.2170  166.3755 C.ar    1  UNL1       -0.0019
     24 C         142.0168  141.6229  166.3488 C.ar    1  UNL1       -0.0089
     25 C         141.0302  142.0631  165.3083 C.ar    1  UNL1        0.0547
     26 N         141.4205  143.0974  164.2945 N.ar    1  UNL1       -0.2543
     27 C         139.6530  141.4691  165.2816 C.3     1  UNL1        0.0485
     28 C         139.2626  140.4348  166.2955 C.3     1  UNL1        0.0067
     29 C         140.2494  139.9946  167.3360 C.3     1  UNL1        0.0048
     30 C         141.6264  140.5887  167.3627 C.3     1  UNL1        0.0235
     31 C         142.6131  140.1485  168.4032 C.3     1  UNL1        0.0047
@<TRIPOS>BOND
     1    20    21    1
     2    21    22   ar
     3    22    23   ar
     4    23    24   ar
     5    24    25   ar
     6    25    26   ar
     7    25    27    1
     8    27    18    1
     9    18    19    1
    10    18     1    1
    11     1     2    2
    12     1     3   am
    13     3     5    1
    14     5     6   ar
    15     6     7   ar
    16     7     8   ar
    17     8     9    1
    18     8    10   ar
    19    10    12    1
    20    12    13   ar
    21    13    14   ar
    22    14    15   ar
    23    15    16   ar
    24    16    17   ar
    25    10    11   ar
    26    27    28    1
    27    28    29    1
    28    29    30    1
    29    30    31    1
    30    26    21   ar
    31    11     5   ar
    32    30    24    1
    33    17    12   ar
    34     3     4    1
