@<TRIPOS>MOLECULE
*****
 35 39 0 0 0
SMALL
GASTEIGER

@<TRIPOS>ATOM
      1 N         143.7446  137.7706  161.6260 N.pl3   1  UNL1       -0.2806
      2 H         144.3988  137.0525  161.7856 H       1  UNL1        0.1551
      3 C         140.4975  137.7973  161.9503 C.3     1  UNL1        0.0553
      4 C         141.4855  138.3680  162.9239 C.ar    1  UNL1        0.0935
      5 N         141.1545  139.0512  164.2177 N.ar    1  UNL1       -0.1727
      6 N         142.4425  139.4613  164.8682 N.ar    1  UNL1       -0.2558
      7 C         143.5695  139.0315  163.9765 C.ar    1  UNL1        0.0704
      8 C         145.0312  139.2406  164.2401 C.3     1  UNL1        0.0531
      9 C         142.9781  138.3558  162.7749 C.ar    1  UNL1        0.0792
     10 C         142.5794  140.1756  166.1800 C.3     1  UNL1        0.1076
     11 C         142.4683  139.4109  167.4656 C.3     1  UNL1        0.0417
     12 C         142.6052  140.1253  168.7775 C.3     1  UNL1        0.0742
     13 N         142.8531  141.6044  168.8036 N.3     1  UNL1       -0.2705
     14 C         142.9642  142.3692  167.5180 C.3     1  UNL1        0.0742
     15 C         142.8273  141.6547  166.2062 C.3     1  UNL1        0.0417
     16 C         142.9900  142.3188  170.1155 C.3     1  UNL1        0.1042
     17 C         142.0082  142.0560  171.2187 C.3     1  UNL1        0.1544
     18 O         142.1901  140.8692  172.1177 O.3     1  UNL1       -0.3805
     19 H         142.0788  140.0541  171.6036 H       1  UNL1        0.2105
     20 C         143.5142  138.2795  160.2339 C.ar    1  UNL1        0.2208
     21 N         144.0241  139.6330  159.8362 N.ar    1  UNL1       -0.2111
     22 C         143.7937  140.1419  158.4441 C.ar    1  UNL1        0.1147
     23 C         143.0535  139.2973  157.4497 C.ar    1  UNL1        0.0946
     24 CL        142.8232  139.8062  156.0576 Cl      1  UNL1       -0.0790
     25 C         142.5436  137.9438  157.8474 C.ar    1  UNL1        0.0992
     26 N         142.7740  137.4350  159.2395 N.ar    1  UNL1       -0.2126
     27 C         141.8034  137.0992  156.8530 C.ar    1  UNL1        0.0572
     28 C         140.4534  137.3999  156.2726 C.ar    1  UNL1        0.1235
     29 N         140.0990  136.2922  155.3253 N.ar    1  UNL1       -0.1634
     30 N         141.2299  135.3069  155.3203 N.ar    1  UNL1       -0.2281
     31 C         141.4366  134.0200  154.5780 C.ar    1  UNL1        0.1004
     32 C         142.6968  133.2318  154.7799 C.ar    1  UNL1        0.0207
     33 C         143.7502  133.7306  155.7241 C.ar    1  UNL1        0.0031
     34 C         143.5435  135.0175  156.4664 C.ar    1  UNL1        0.0193
     35 C         142.2834  135.8056  156.2645 C.ar    1  UNL1        0.0858
@<TRIPOS>BOND
     1     3     4    1
     2     4     5   ar
     3     5     6   ar
     4     6    10    1
     5    10    11    1
     6    11    12    1
     7    12    13    1
     8    13    16    1
     9    16    17    1
    10    17    18    1
    11    13    14    1
    12    14    15    1
    13     6     7   ar
    14     7     8    1
    15     7     9   ar
    16     9     1    1
    17     1    20    1
    18    20    21   ar
    19    21    22   ar
    20    22    23   ar
    21    23    24    1
    22    23    25   ar
    23    25    27    1
    24    27    28   ar
    25    28    29   ar
    26    29    30   ar
    27    30    31   ar
    28    31    32   ar
    29    32    33   ar
    30    33    34   ar
    31    34    35   ar
    32    25    26   ar
    33     9     4   ar
    34    26    20   ar
    35    15    10    1
    36    35    27   ar
    37    35    30   ar
    38    18    19    1
    39     1     2    1
@<TRIPOS>MOLECULE
*****
 35 39 0 0 0
SMALL
GASTEIGER

@<TRIPOS>ATOM
      1 N         143.3362  144.0391  162.0889 N.pl3   1  UNL1       -0.2806
      2 H         143.9173  144.8108  161.8994 H       1  UNL1        0.1551
      3 C         145.5423  141.9866  163.3417 C.3     1  UNL1        0.0553
      4 C         144.7017  141.7415  162.1238 C.ar    1  UNL1        0.0935
      5 N         144.7276  140.5099  161.2679 N.ar    1  UNL1       -0.1727
      6 N         143.7294  140.6922  160.1630 N.ar    1  UNL1       -0.2558
      7 C         143.0868  142.0364  160.3361 C.ar    1  UNL1        0.0704
      8 C         142.0290  142.6282  159.4525 C.3     1  UNL1        0.0531
      9 C         143.6876  142.6849  161.5479 C.ar    1  UNL1        0.0792
     10 C         143.4271  139.7038  159.0760 C.3     1  UNL1        0.1076
     11 C         142.9099  138.3398  159.4252 C.3     1  UNL1        0.0417
     12 C         142.6076  137.3513  158.3381 C.3     1  UNL1        0.0742
     13 N         142.8225  137.7270  156.9019 N.3     1  UNL1       -0.2705
     14 C         143.3397  139.0910  156.5527 C.3     1  UNL1        0.0742
     15 C         143.6420  140.0794  157.6398 C.3     1  UNL1        0.0417
     16 C         142.5202  136.7385  155.8148 C.3     1  UNL1        0.1042
     17 C         143.5878  135.7996  155.3367 C.3     1  UNL1        0.1544
     18 O         144.9579  136.3211  155.0192 O.3     1  UNL1       -0.3805
     19 H         144.9085  136.9143  154.2533 H       1  UNL1        0.2105
     20 C         142.0994  144.2175  162.9186 C.ar    1  UNL1        0.2208
     21 N         141.1103  145.2898  162.5695 N.ar    1  UNL1       -0.2111
     22 C         139.8735  145.4682  163.3993 C.ar    1  UNL1        0.1147
     23 C         139.6257  144.5742  164.5780 C.ar    1  UNL1        0.0946
     24 CL        138.3889  144.7526  165.4077 Cl      1  UNL1       -0.0790
     25 C         140.6149  143.5018  164.9271 C.ar    1  UNL1        0.0992
     26 N         141.8516  143.3235  164.0973 N.ar    1  UNL1       -0.2126
     27 C         140.3671  142.6079  166.1058 C.ar    1  UNL1        0.0572
     28 C         140.8778  142.8245  167.4994 C.ar    1  UNL1        0.1235
     29 N         140.3914  141.6908  168.3527 N.ar    1  UNL1       -0.1634
     30 N         139.5801  140.7735  167.4865 N.ar    1  UNL1       -0.2281
     31 C         138.8531  139.4954  167.7829 C.ar    1  UNL1        0.1004
     32 C         138.1111  138.7841  166.6905 C.ar    1  UNL1        0.0207
     33 C         138.0960  139.3509  165.3018 C.ar    1  UNL1        0.0031
     34 C         138.8230  140.6290  165.0054 C.ar    1  UNL1        0.0193
     35 C         139.5651  141.3403  166.0978 C.ar    1  UNL1        0.0858
@<TRIPOS>BOND
     1     3     4    1
     2     4     5   ar
     3     5     6   ar
     4     6    10    1
     5    10    11    1
     6    11    12    1
     7    12    13    1
     8    13    16    1
     9    16    17    1
    10    17    18    1
    11    13    14    1
    12    14    15    1
    13     6     7   ar
    14     7     8    1
    15     7     9   ar
    16     9     1    1
    17     1    20    1
    18    20    21   ar
    19    21    22   ar
    20    22    23   ar
    21    23    24    1
    22    23    25   ar
    23    25    27    1
    24    27    28   ar
    25    28    29   ar
    26    29    30   ar
    27    30    31   ar
    28    31    32   ar
    29    32    33   ar
    30    33    34   ar
    31    34    35   ar
    32    25    26   ar
    33     9     4   ar
    34    26    20   ar
    35    15    10    1
    36    35    27   ar
    37    35    30   ar
    38    18    19    1
    39     1     2    1
@<TRIPOS>MOLECULE
*****
 35 39 0 0 0
SMALL
GASTEIGER

@<TRIPOS>ATOM
      1 N         144.4715  143.0361  162.6976 N.pl3   1  UNL1       -0.2806
      2 H         145.3758  143.4052  162.5743 H       1  UNL1        0.1551
      3 C         142.4920  145.2635  164.0279 C.3     1  UNL1        0.0553
      4 C         142.3884  144.7100  162.6377 C.ar    1  UNL1        0.0935
      5 N         141.3566  145.0832  161.6147 N.ar    1  UNL1       -0.1727
      6 N         141.6289  144.2899  160.3710 N.ar    1  UNL1       -0.2558
      7 C         142.8288  143.4266  160.6253 C.ar    1  UNL1        0.0704
      8 C         143.4503  142.4713  159.6500 C.3     1  UNL1        0.0531
      9 C         143.2983  143.6861  162.0261 C.ar    1  UNL1        0.0792
     10 C         140.8397  144.3496  159.0968 C.3     1  UNL1        0.1076
     11 C         139.9214  143.2218  158.7298 C.3     1  UNL1        0.0417
     12 C         139.1322  143.2814  157.4556 C.3     1  UNL1        0.0742
     13 N         139.2614  144.4690  156.5484 N.3     1  UNL1       -0.2705
     14 C         140.1797  145.5968  156.9153 C.3     1  UNL1        0.0742
     15 C         140.9689  145.5371  158.1896 C.3     1  UNL1        0.0417
     16 C         138.4722  144.5286  155.2741 C.3     1  UNL1        0.1042
     17 C         137.3750  143.5368  155.0243 C.3     1  UNL1        0.1544
     18 O         136.1299  143.5696  155.8602 O.3     1  UNL1       -0.3805
     19 H         136.3497  143.3410  156.7769 H       1  UNL1        0.2105
     20 C         144.2669  141.8238  163.5570 C.ar    1  UNL1        0.2208
     21 N         145.2067  140.6598  163.4477 N.ar    1  UNL1       -0.2111
     22 C         145.0021  139.4475  164.3070 C.ar    1  UNL1        0.1147
     23 C         143.8578  139.3992  165.2756 C.ar    1  UNL1        0.0946
     24 CL        143.6532  138.1869  166.1350 Cl      1  UNL1       -0.0790
     25 C         142.9180  140.5633  165.3849 C.ar    1  UNL1        0.0992
     26 N         143.1226  141.7755  164.5256 N.ar    1  UNL1       -0.2126
     27 C         141.7737  140.5150  166.3535 C.ar    1  UNL1        0.0572
     28 C         141.6638  141.2981  167.6281 C.ar    1  UNL1        0.1235
     29 N         140.3605  140.9422  168.2799 N.ar    1  UNL1       -0.1634
     30 N         139.6649  139.9390  167.4081 N.ar    1  UNL1       -0.2281
     31 C         138.3492  139.2319  167.5446 C.ar    1  UNL1        0.1004
     32 C         137.9068  138.2608  166.4905 C.ar    1  UNL1        0.0207
     33 C         138.7802  137.9968  165.2999 C.ar    1  UNL1        0.0031
     34 C         140.0960  138.7039  165.1634 C.ar    1  UNL1        0.0193
     35 C         140.5383  139.6750  166.2175 C.ar    1  UNL1        0.0858
@<TRIPOS>BOND
     1     3     4    1
     2     4     5   ar
     3     5     6   ar
     4     6    10    1
     5    10    11    1
     6    11    12    1
     7    12    13    1
     8    13    16    1
     9    16    17    1
    10    17    18    1
    11    13    14    1
    12    14    15    1
    13     6     7   ar
    14     7     8    1
    15     7     9   ar
    16     9     1    1
    17     1    20    1
    18    20    21   ar
    19    21    22   ar
    20    22    23   ar
    21    23    24    1
    22    23    25   ar
    23    25    27    1
    24    27    28   ar
    25    28    29   ar
    26    29    30   ar
    27    30    31   ar
    28    31    32   ar
    29    32    33   ar
    30    33    34   ar
    31    34    35   ar
    32    25    26   ar
    33     9     4   ar
    34    26    20   ar
    35    15    10    1
    36    35    27   ar
    37    35    30   ar
    38    18    19    1
    39     1     2    1
@<TRIPOS>MOLECULE
*****
 35 39 0 0 0
SMALL
GASTEIGER

@<TRIPOS>ATOM
      1 N         137.4280  139.5518  161.7516 N.pl3   1  UNL1       -0.2806
      2 H         136.5614  139.1077  161.8964 H       1  UNL1        0.1551
      3 C         137.8019  142.7475  162.2970 C.3     1  UNL1        0.0553
      4 C         138.3285  141.6384  163.1588 C.ar    1  UNL1        0.0935
      5 N         139.1195  141.8035  164.4226 N.ar    1  UNL1       -0.1727
      6 N         139.4365  140.4366  164.9530 N.ar    1  UNL1       -0.2558
      7 C         138.8414  139.4268  164.0170 C.ar    1  UNL1        0.0704
      8 C         138.9177  137.9360  164.1640 C.3     1  UNL1        0.0531
      9 C         138.1567  140.1695  162.9081 C.ar    1  UNL1        0.0792
     10 C         140.2122  140.1329  166.2004 C.3     1  UNL1        0.1076
     11 C         141.6426  139.6914  166.1051 C.3     1  UNL1        0.0417
     12 C         142.4185  139.3876  167.3525 C.3     1  UNL1        0.0742
     13 N         141.7638  139.5256  168.6951 N.3     1  UNL1       -0.2705
     14 C         140.3334  139.9671  168.7903 C.3     1  UNL1        0.0742
     15 C         139.5577  140.2708  167.5429 C.3     1  UNL1        0.0417
     16 C         142.5397  139.2218  169.9425 C.3     1  UNL1        0.1042
     17 C         143.0158  140.3408  170.8207 C.3     1  UNL1        0.1544
     18 O         142.2160  140.7414  172.0248 O.3     1  UNL1       -0.3805
     19 H         141.3650  141.1095  171.7399 H       1  UNL1        0.2105
     20 C         138.0197  139.6108  160.3745 C.ar    1  UNL1        0.2208
     21 N         139.1791  138.7284  160.0179 N.ar    1  UNL1       -0.2111
     22 C         139.7708  138.7873  158.6408 C.ar    1  UNL1        0.1147
     23 C         139.2031  139.7288  157.6203 C.ar    1  UNL1        0.0946
     24 CL        139.7948  139.7877  156.2432 Cl      1  UNL1       -0.0790
     25 C         138.0437  140.6113  157.9769 C.ar    1  UNL1        0.0992
     26 N         137.4521  140.5522  159.3540 N.ar    1  UNL1       -0.2126
     27 C         137.4761  141.5527  156.9564 C.ar    1  UNL1        0.0572
     28 C         136.2444  141.3213  156.1321 C.ar    1  UNL1        0.1235
     29 N         136.0476  142.5164  155.2472 N.ar    1  UNL1       -0.1634
     30 N         137.1576  143.4865  155.5247 N.ar    1  UNL1       -0.2281
     31 C         137.4784  144.8351  154.9520 C.ar    1  UNL1        0.1004
     32 C         138.6822  145.5882  155.4355 C.ar    1  UNL1        0.0207
     33 C         139.5650  144.9926  156.4919 C.ar    1  UNL1        0.0031
     34 C         139.2442  143.6439  157.0646 C.ar    1  UNL1        0.0193
     35 C         138.0404  142.8908  156.5810 C.ar    1  UNL1        0.0858
@<TRIPOS>BOND
     1     3     4    1
     2     4     5   ar
     3     5     6   ar
     4     6    10    1
     5    10    11    1
     6    11    12    1
     7    12    13    1
     8    13    16    1
     9    16    17    1
    10    17    18    1
    11    13    14    1
    12    14    15    1
    13     6     7   ar
    14     7     8    1
    15     7     9   ar
    16     9     1    1
    17     1    20    1
    18    20    21   ar
    19    21    22   ar
    20    22    23   ar
    21    23    24    1
    22    23    25   ar
    23    25    27    1
    24    27    28   ar
    25    28    29   ar
    26    29    30   ar
    27    30    31   ar
    28    31    32   ar
    29    32    33   ar
    30    33    34   ar
    31    34    35   ar
    32    25    26   ar
    33     9     4   ar
    34    26    20   ar
    35    15    10    1
    36    35    27   ar
    37    35    30   ar
    38    18    19    1
    39     1     2    1
@<TRIPOS>MOLECULE
*****
 35 39 0 0 0
SMALL
GASTEIGER

@<TRIPOS>ATOM
      1 N         143.7423  138.6865  162.3539 N.pl3   1  UNL1       -0.2806
      2 H         144.4432  137.9965  162.3095 H       1  UNL1        0.1551
      3 C         141.0915  137.2099  163.5547 C.3     1  UNL1        0.0553
      4 C         141.2247  137.8047  162.1842 C.ar    1  UNL1        0.0935
      5 N         140.1628  137.8253  161.1249 N.ar    1  UNL1       -0.1727
      6 N         140.7250  138.5168  159.9183 N.ar    1  UNL1       -0.2558
      7 C         142.1343  138.9236  160.2318 C.ar    1  UNL1        0.0704
      8 C         143.0704  139.6439  159.3074 C.3     1  UNL1        0.0531
      9 C         142.4432  138.4835  161.6322 C.ar    1  UNL1        0.0792
     10 C         140.0044  138.7590  158.6252 C.3     1  UNL1        0.1076
     11 C         140.1844  137.8105  157.4773 C.3     1  UNL1        0.0417
     12 C         139.4638  138.0526  156.1841 C.3     1  UNL1        0.0742
     13 N         138.5631  139.2433  156.0391 N.3     1  UNL1       -0.2705
     14 C         138.3831  140.1919  157.1871 C.3     1  UNL1        0.0742
     15 C         139.1037  139.9496  158.4801 C.3     1  UNL1        0.0417
     16 C         137.8425  139.4855  154.7460 C.3     1  UNL1        0.1042
     17 C         136.6360  138.6662  154.3949 C.3     1  UNL1        0.1544
     18 O         135.3737  138.8104  155.1921 O.3     1  UNL1       -0.3805
     19 H         135.5253  138.4965  156.0973 H       1  UNL1        0.2105
     20 C         143.9738  139.9408  163.1434 C.ar    1  UNL1        0.2208
     21 N         145.2927  140.6497  163.0555 N.ar    1  UNL1       -0.2111
     22 C         145.5241  141.9039  163.8450 C.ar    1  UNL1        0.1147
     23 C         144.4366  142.4493  164.7224 C.ar    1  UNL1        0.0946
     24 CL        144.6680  143.7035  165.5119 Cl      1  UNL1       -0.0790
     25 C         143.1175  141.7403  164.8103 C.ar    1  UNL1        0.0992
     26 N         142.8862  140.4861  164.0208 N.ar    1  UNL1       -0.2126
     27 C         142.0300  142.2856  165.6877 C.ar    1  UNL1        0.0572
     28 C         140.7231  142.8551  165.2212 C.ar    1  UNL1        0.1235
     29 N         139.9438  143.2786  166.4309 N.ar    1  UNL1       -0.1634
     30 N         140.7692  142.9710  167.6450 N.ar    1  UNL1       -0.2281
     31 C         140.5132  143.1704  169.1095 C.ar    1  UNL1        0.1004
     32 C         141.5466  142.7561  170.1147 C.ar    1  UNL1        0.0207
     33 C         142.8360  142.1424  169.6554 C.ar    1  UNL1        0.0031
     34 C         143.0919  141.9430  168.1909 C.ar    1  UNL1        0.0193
     35 C         142.0585  142.3573  167.1858 C.ar    1  UNL1        0.0858
@<TRIPOS>BOND
     1     3     4    1
     2     4     5   ar
     3     5     6   ar
     4     6    10    1
     5    10    11    1
     6    11    12    1
     7    12    13    1
     8    13    16    1
     9    16    17    1
    10    17    18    1
    11    13    14    1
    12    14    15    1
    13     6     7   ar
    14     7     8    1
    15     7     9   ar
    16     9     1    1
    17     1    20    1
    18    20    21   ar
    19    21    22   ar
    20    22    23   ar
    21    23    24    1
    22    23    25   ar
    23    25    27    1
    24    27    28   ar
    25    28    29   ar
    26    29    30   ar
    27    30    31   ar
    28    31    32   ar
    29    32    33   ar
    30    33    34   ar
    31    34    35   ar
    32    25    26   ar
    33     9     4   ar
    34    26    20   ar
    35    15    10    1
    36    35    27   ar
    37    35    30   ar
    38    18    19    1
    39     1     2    1
@<TRIPOS>MOLECULE
*****
 35 39 0 0 0
SMALL
GASTEIGER

@<TRIPOS>ATOM
      1 N         142.6527  137.5466  161.6600 N.pl3   1  UNL1       -0.2806
      2 H         142.9130  136.6002  161.7360 H       1  UNL1        0.1551
      3 C         144.4532  140.2594  161.8796 C.3     1  UNL1        0.0553
      4 C         143.5737  139.6954  162.9559 C.ar    1  UNL1        0.0935
      5 N         143.3675  140.2793  164.3221 N.ar    1  UNL1       -0.1727
      6 N         142.4124  139.3932  165.0656 N.ar    1  UNL1       -0.2558
      7 C         142.0283  138.2617  164.1589 C.ar    1  UNL1        0.0704
      8 C         141.0912  137.1404  164.4966 C.3     1  UNL1        0.0531
      9 C         142.7461  138.4484  162.8550 C.ar    1  UNL1        0.0792
     10 C         141.9266  139.6020  166.4693 C.3     1  UNL1        0.1076
     11 C         142.8429  139.3375  167.6271 C.3     1  UNL1        0.0417
     12 C         142.3571  139.5463  169.0309 C.3     1  UNL1        0.0742
     13 N         140.9551  140.0195  169.2767 N.3     1  UNL1       -0.2705
     14 C         140.0389  140.2840  168.1189 C.3     1  UNL1        0.0742
     15 C         140.5247  140.0752  166.7152 C.3     1  UNL1        0.0417
     16 C         140.4694  140.2283  170.6805 C.3     1  UNL1        0.1042
     17 C         140.6550  141.5586  171.3483 C.3     1  UNL1        0.1544
     18 O         142.0117  141.9683  171.8396 O.3     1  UNL1       -0.3805
     19 H         142.2834  141.3836  172.5643 H       1  UNL1        0.2105
     20 C         142.1625  138.0867  160.3493 C.ar    1  UNL1        0.2208
     21 N         140.7082  138.4048  160.1659 N.ar    1  UNL1       -0.2111
     22 C         140.2180  138.9448  158.8551 C.ar    1  UNL1        0.1147
     23 C         141.1823  139.1669  157.7278 C.ar    1  UNL1        0.0946
     24 CL        140.6921  139.7069  156.4170 Cl      1  UNL1       -0.0790
     25 C         142.6367  138.8488  157.9112 C.ar    1  UNL1        0.0992
     26 N         143.1268  138.3087  159.2219 N.ar    1  UNL1       -0.2126
     27 C         143.6010  139.0708  156.7838 C.ar    1  UNL1        0.0572
     28 C         143.7603  138.1972  155.5750 C.ar    1  UNL1        0.1235
     29 N         144.8330  138.7919  154.7114 N.ar    1  UNL1       -0.1634
     30 N         145.3365  140.0331  155.3866 N.ar    1  UNL1       -0.2281
     31 C         146.3900  141.0287  155.0006 C.ar    1  UNL1        0.1004
     32 C         146.6821  142.1966  155.8953 C.ar    1  UNL1        0.0207
     33 C         145.9206  142.3689  157.1762 C.ar    1  UNL1        0.0031
     34 C         144.8671  141.3734  157.5622 C.ar    1  UNL1        0.0193
     35 C         144.5751  140.2055  156.6674 C.ar    1  UNL1        0.0858
@<TRIPOS>BOND
     1     3     4    1
     2     4     5   ar
     3     5     6   ar
     4     6    10    1
     5    10    11    1
     6    11    12    1
     7    12    13    1
     8    13    16    1
     9    16    17    1
    10    17    18    1
    11    13    14    1
    12    14    15    1
    13     6     7   ar
    14     7     8    1
    15     7     9   ar
    16     9     1    1
    17     1    20    1
    18    20    21   ar
    19    21    22   ar
    20    22    23   ar
    21    23    24    1
    22    23    25   ar
    23    25    27    1
    24    27    28   ar
    25    28    29   ar
    26    29    30   ar
    27    30    31   ar
    28    31    32   ar
    29    32    33   ar
    30    33    34   ar
    31    34    35   ar
    32    25    26   ar
    33     9     4   ar
    34    26    20   ar
    35    15    10    1
    36    35    27   ar
    37    35    30   ar
    38    18    19    1
    39     1     2    1
@<TRIPOS>MOLECULE
*****
 35 39 0 0 0
SMALL
GASTEIGER

@<TRIPOS>ATOM
      1 N         144.5637  142.9392  162.7009 N.pl3   1  UNL1       -0.2806
      2 H         145.4775  143.2769  162.5587 H       1  UNL1        0.1551
      3 C         142.6317  145.2023  164.0406 C.3     1  UNL1        0.0553
      4 C         142.5143  144.6544  162.6492 C.ar    1  UNL1        0.0935
      5 N         141.4882  145.0506  161.6293 N.ar    1  UNL1       -0.1727
      6 N         141.7421  144.2551  160.3831 N.ar    1  UNL1       -0.2558
      7 C         142.9251  143.3674  160.6328 C.ar    1  UNL1        0.0704
      8 C         143.5254  142.4024  159.6540 C.3     1  UNL1        0.0531
      9 C         143.4024  143.6141  162.0334 C.ar    1  UNL1        0.0792
     10 C         140.9517  144.3336  159.1106 C.3     1  UNL1        0.1076
     11 C         140.0124  143.2240  158.7415 C.3     1  UNL1        0.0417
     12 C         139.2220  143.3025  157.4690 C.3     1  UNL1        0.0742
     13 N         139.3711  144.4907  156.5657 N.3     1  UNL1       -0.2705
     14 C         140.3104  145.6004  156.9348 C.3     1  UNL1        0.0742
     15 C         141.1008  145.5217  158.2073 C.3     1  UNL1        0.0417
     16 C         138.5807  144.5692  155.2932 C.3     1  UNL1        0.1042
     17 C         137.4590  143.6044  155.0463 C.3     1  UNL1        0.1544
     18 O         136.2175  143.6669  155.8856 O.3     1  UNL1       -0.3805
     19 H         136.4343  143.4328  156.8016 H       1  UNL1        0.2105
     20 C         144.3330  141.7498  163.5851 C.ar    1  UNL1        0.2208
     21 N         145.2326  140.5538  163.4834 N.ar    1  UNL1       -0.2111
     22 C         145.0019  139.3644  164.3676 C.ar    1  UNL1        0.1147
     23 C         143.8715  139.3708  165.3536 C.ar    1  UNL1        0.0946
     24 CL        143.6407  138.1813  166.2379 Cl      1  UNL1       -0.0790
     25 C         142.9718  140.5668  165.4553 C.ar    1  UNL1        0.0992
     26 N         143.2026  141.7562  164.5711 N.ar    1  UNL1       -0.2126
     27 C         141.8414  140.5733  166.4413 C.ar    1  UNL1        0.0572
     28 C         140.5395  139.8427  166.2949 C.ar    1  UNL1        0.1235
     29 N         139.7080  140.1294  167.5099 N.ar    1  UNL1       -0.1634
     30 N         140.4958  141.0371  168.4073 N.ar    1  UNL1       -0.2281
     31 C         140.1830  141.6494  169.7404 C.ar    1  UNL1        0.1004
     32 C         141.1886  142.5359  170.4131 C.ar    1  UNL1        0.0207
     33 C         142.5072  142.8103  169.7526 C.ar    1  UNL1        0.0031
     34 C         142.8200  142.1981  168.4195 C.ar    1  UNL1        0.0193
     35 C         141.8144  141.3115  167.7468 C.ar    1  UNL1        0.0858
@<TRIPOS>BOND
     1     3     4    1
     2     4     5   ar
     3     5     6   ar
     4     6    10    1
     5    10    11    1
     6    11    12    1
     7    12    13    1
     8    13    16    1
     9    16    17    1
    10    17    18    1
    11    13    14    1
    12    14    15    1
    13     6     7   ar
    14     7     8    1
    15     7     9   ar
    16     9     1    1
    17     1    20    1
    18    20    21   ar
    19    21    22   ar
    20    22    23   ar
    21    23    24    1
    22    23    25   ar
    23    25    27    1
    24    27    28   ar
    25    28    29   ar
    26    29    30   ar
    27    30    31   ar
    28    31    32   ar
    29    32    33   ar
    30    33    34   ar
    31    34    35   ar
    32    25    26   ar
    33     9     4   ar
    34    26    20   ar
    35    15    10    1
    36    35    27   ar
    37    35    30   ar
    38    18    19    1
    39     1     2    1
@<TRIPOS>MOLECULE
*****
 35 39 0 0 0
SMALL
GASTEIGER

@<TRIPOS>ATOM
      1 N         142.5850  144.7679  161.4659 N.pl3   1  UNL1       -0.2806
      2 H         143.0360  145.6429  161.4838 H       1  UNL1        0.1551
      3 C         144.8083  142.3801  161.3988 C.3     1  UNL1        0.0553
      4 C         143.8623  142.6725  162.5255 C.ar    1  UNL1        0.0935
      5 N         143.7721  141.9188  163.8193 N.ar    1  UNL1       -0.1727
      6 N         142.6944  142.5506  164.6497 N.ar    1  UNL1       -0.2558
      7 C         142.1185  143.6947  163.8692 C.ar    1  UNL1        0.0704
      8 C         141.0148  144.6038  164.3219 C.3     1  UNL1        0.0531
      9 C         142.8403  143.7702  162.5564 C.ar    1  UNL1        0.0792
     10 C         142.2675  142.1146  166.0200 C.3     1  UNL1        0.1076
     11 C         143.1600  142.3663  167.1990 C.3     1  UNL1        0.0417
     12 C         142.7331  141.9303  168.5694 C.3     1  UNL1        0.0742
     13 N         141.4138  141.2428  168.7606 N.3     1  UNL1       -0.2705
     14 C         140.5212  140.9912  167.5815 C.3     1  UNL1        0.0742
     15 C         140.9482  141.4272  166.2112 C.3     1  UNL1        0.0417
     16 C         140.9869  140.8069  170.1310 C.3     1  UNL1        0.1042
     17 C         140.8562  141.8167  171.2324 C.3     1  UNL1        0.1544
     18 O         142.0574  142.1997  172.0451 O.3     1  UNL1       -0.3805
     19 H         142.3562  141.4346  172.5609 H       1  UNL1        0.2105
     20 C         141.6426  144.4327  160.3481 C.ar    1  UNL1        0.2208
     21 N         140.4473  143.5651  160.6096 N.ar    1  UNL1       -0.2111
     22 C         139.5049  143.2299  159.4918 C.ar    1  UNL1        0.1147
     23 C         139.7578  143.7623  158.1125 C.ar    1  UNL1        0.0946
     24 CL        138.8154  143.4270  156.9947 Cl      1  UNL1       -0.0790
     25 C         140.9532  144.6299  157.8509 C.ar    1  UNL1        0.0992
     26 N         141.8956  144.9651  158.9687 N.ar    1  UNL1       -0.2126
     27 C         141.2062  145.1623  156.4715 C.ar    1  UNL1        0.0572
     28 C         142.1946  144.6173  155.4836 C.ar    1  UNL1        0.1235
     29 N         142.1143  145.4513  154.2395 N.ar    1  UNL1       -0.1634
     30 N         141.0763  146.5118  154.4585 N.ar    1  UNL1       -0.2281
     31 C         140.5697  147.6170  153.5800 C.ar    1  UNL1        0.1004
     32 C         139.5019  148.5436  154.0810 C.ar    1  UNL1        0.0207
     33 C         138.9406  148.3650  155.4605 C.ar    1  UNL1        0.0031
     34 C         139.4472  147.2598  156.3390 C.ar    1  UNL1        0.0193
     35 C         140.5150  146.3332  155.8380 C.ar    1  UNL1        0.0858
@<TRIPOS>BOND
     1     3     4    1
     2     4     5   ar
     3     5     6   ar
     4     6    10    1
     5    10    11    1
     6    11    12    1
     7    12    13    1
     8    13    16    1
     9    16    17    1
    10    17    18    1
    11    13    14    1
    12    14    15    1
    13     6     7   ar
    14     7     8    1
    15     7     9   ar
    16     9     1    1
    17     1    20    1
    18    20    21   ar
    19    21    22   ar
    20    22    23   ar
    21    23    24    1
    22    23    25   ar
    23    25    27    1
    24    27    28   ar
    25    28    29   ar
    26    29    30   ar
    27    30    31   ar
    28    31    32   ar
    29    32    33   ar
    30    33    34   ar
    31    34    35   ar
    32    25    26   ar
    33     9     4   ar
    34    26    20   ar
    35    15    10    1
    36    35    27   ar
    37    35    30   ar
    38    18    19    1
    39     1     2    1
@<TRIPOS>MOLECULE
*****
 35 39 0 0 0
SMALL
GASTEIGER

@<TRIPOS>ATOM
      1 N         137.2744  141.0592  164.1114 N.pl3   1  UNL1       -0.2806
      2 H         136.3372  141.0746  164.4124 H       1  UNL1        0.1551
      3 C         137.8218  144.0393  162.8996 C.3     1  UNL1        0.0553
      4 C         137.8613  142.7532  162.1288 C.ar    1  UNL1        0.0935
      5 N         138.1594  142.6110  160.6656 N.ar    1  UNL1       -0.1727
      6 N         138.0920  141.1533  160.3182 N.ar    1  UNL1       -0.2558
      7 C         137.7523  140.3945  161.5668 C.ar    1  UNL1        0.0704
      8 C         137.5847  138.9081  161.6770 C.3     1  UNL1        0.0531
      9 C         137.6097  141.3833  162.6858 C.ar    1  UNL1        0.0792
     10 C         138.3237  140.5587  158.9607 C.3     1  UNL1        0.1076
     11 C         139.3193  139.4503  158.7875 C.3     1  UNL1        0.0417
     12 C         139.5511  138.8556  157.4299 C.3     1  UNL1        0.0742
     13 N         138.7871  139.3696  156.2458 N.3     1  UNL1       -0.2705
     14 C         137.7915  140.4781  156.4190 C.3     1  UNL1        0.0742
     15 C         137.5599  141.0726  157.7766 C.3     1  UNL1        0.0417
     16 C         139.0188  138.7750  154.8882 C.3     1  UNL1        0.1042
     17 C         138.1912  137.6119  154.4277 C.3     1  UNL1        0.1544
     18 O         136.7002  137.6418  154.5889 O.3     1  UNL1       -0.3805
     19 H         136.4769  137.6363  155.5328 H       1  UNL1        0.2105
     20 C         138.3670  140.7117  165.0786 C.ar    1  UNL1        0.2208
     21 N         138.1088  139.7259  166.1793 N.ar    1  UNL1       -0.2111
     22 C         139.2014  139.3784  167.1464 C.ar    1  UNL1        0.1147
     23 C         140.5523  140.0166  167.0128 C.ar    1  UNL1        0.0946
     24 CL        141.6449  139.6691  167.9800 Cl      1  UNL1       -0.0790
     25 C         140.8105  141.0024  165.9121 C.ar    1  UNL1        0.0992
     26 N         139.7179  141.3499  164.9450 N.ar    1  UNL1       -0.2126
     27 C         142.1614  141.6406  165.7785 C.ar    1  UNL1        0.0572
     28 C         142.7840  142.5985  166.7506 C.ar    1  UNL1        0.1235
     29 N         144.1342  142.9828  166.2222 N.ar    1  UNL1       -0.1634
     30 N         144.3461  142.2626  164.9236 N.ar    1  UNL1       -0.2281
     31 C         145.4917  142.2549  163.9555 C.ar    1  UNL1        0.1004
     32 C         145.4181  141.4176  162.7131 C.ar    1  UNL1        0.0207
     33 C         144.1988  140.5881  162.4389 C.ar    1  UNL1        0.0031
     34 C         143.0532  140.5958  163.4070 C.ar    1  UNL1        0.0193
     35 C         143.1268  141.4330  164.6494 C.ar    1  UNL1        0.0858
@<TRIPOS>BOND
     1     3     4    1
     2     4     5   ar
     3     5     6   ar
     4     6    10    1
     5    10    11    1
     6    11    12    1
     7    12    13    1
     8    13    16    1
     9    16    17    1
    10    17    18    1
    11    13    14    1
    12    14    15    1
    13     6     7   ar
    14     7     8    1
    15     7     9   ar
    16     9     1    1
    17     1    20    1
    18    20    21   ar
    19    21    22   ar
    20    22    23   ar
    21    23    24    1
    22    23    25   ar
    23    25    27    1
    24    27    28   ar
    25    28    29   ar
    26    29    30   ar
    27    30    31   ar
    28    31    32   ar
    29    32    33   ar
    30    33    34   ar
    31    34    35   ar
    32    25    26   ar
    33     9     4   ar
    34    26    20   ar
    35    15    10    1
    36    35    27   ar
    37    35    30   ar
    38    18    19    1
    39     1     2    1
