@<TRIPOS>MOLECULE
*****
 37 42 0 0 0
SMALL
GASTEIGER

@<TRIPOS>ATOM
      1 C         139.9663  142.4910  165.7852 C.2     1  UNL1       -0.0155
      2 C         139.4677  143.8810  166.0481 C.2     1  UNL1       -0.0023
      3 C         138.7753  144.6476  164.9606 C.2     1  UNL1        0.0203
      4 C         138.5814  144.0242  163.6101 C.2     1  UNL1        0.1007
      5 N         137.9406  144.5324  162.3526 N.2     1  UNL1       -0.1482
      6 N         138.0432  143.4564  161.3126 N.2     1  UNL1       -0.1467
      7 C         138.7473  142.2832  161.9273 C.2     1  UNL1        0.1199
      8 C         139.0800  142.6341  163.3472 C.2     1  UNL1        0.0225
      9 C         139.7724  141.8675  164.4348 C.3     1  UNL1        0.0559
     10 C         142.0437  140.1910  169.0479 C.ar    1  UNL1        0.0554
     11 C         140.5689  140.0218  168.8333 C.ar    1  UNL1        0.0046
     12 C         139.8764  140.7885  167.7457 C.ar    1  UNL1        0.0021
     13 C         140.6588  141.7243  166.8728 C.ar    1  UNL1        0.0238
     14 C         142.1337  141.8936  167.0874 C.ar    1  UNL1        0.1399
     15 F         142.9161  142.8295  166.2145 F       1  UNL1       -0.2042
     16 C         142.8261  141.1270  168.1749 C.ar    1  UNL1        0.0341
     17 N         143.0660  140.0978  171.4345 N.am    1  UNL1       -0.3253
     18 C         142.7362  139.4244  170.1354 C.2     1  UNL1        0.2428
     19 O         143.0989  137.9844  169.9238 O.2     1  UNL1       -0.2704
     20 H         143.5205  139.5947  172.1483 H       1  UNL1        0.1453
     21 H         142.8280  141.0430  171.5733 H       1  UNL1        0.1453
     22 C         139.0634  140.9867  161.2423 C.ar    1  UNL1        0.1226
     23 C         138.3195  140.5938  160.0005 C.ar    1  UNL1        0.1198
     24 N         138.6355  139.2973  159.3155 N.ar    1  UNL1       -0.2358
     25 C         139.6954  138.3937  159.8723 C.ar    1  UNL1        0.1564
     26 C         140.4393  138.7866  161.1142 C.ar    1  UNL1        0.2447
     27 N         140.1233  140.0831  161.7991 N.ar    1  UNL1       -0.2072
     28 O         141.4993  137.8830  161.6711 O.3     1  UNL1       -0.4615
     29 C         142.6033  138.4516  162.5124 C.3     1  UNL1        0.1830
     30 C         143.7748  139.1227  161.8587 C.3     1  UNL1        0.1127
     31 N         144.8788  139.6912  162.7001 N.3     1  UNL1       -0.2945
     32 C         144.8114  139.5887  164.1951 C.3     1  UNL1        0.0688
     33 C         143.6399  138.9177  164.8487 C.3     1  UNL1        0.0206
     34 C         142.5359  138.3491  164.0074 C.3     1  UNL1        0.0396
     35 C         141.2220  137.6334  163.8990 C.3     1  UNL1        0.0037
     36 C         141.8205  137.9025  165.2479 C.3     1  UNL1        0.0037
     37 H         144.9386  140.6844  162.4754 H       1  UNL1        0.1234
@<TRIPOS>BOND
     1    17    18   am
     2    18    19    2
     3    18    10    1
     4    10    11   ar
     5    11    12   ar
     6    12    13   ar
     7    13     1    1
     8     1     2    2
     9     2     3    1
    10     3     4    2
    11     4     5    1
    12     5     6    2
    13     6     7    1
    14     7    22    1
    15    22    23   ar
    16    23    24   ar
    17    24    25   ar
    18    25    26   ar
    19    26    28    1
    20    29    28    1
    21    29    30    1
    22    30    31    1
    23    31    32    1
    24    32    33    1
    25    33    34    1
    26    34    35    1
    27    35    36    1
    28    26    27   ar
    29     7     8    2
    30     8     9    1
    31    13    14   ar
    32    14    15    1
    33    14    16   ar
    34    16    10   ar
    35     9     1    1
    36     8     4    1
    37    27    22   ar
    38    34    29    1
    39    36    34    1
    40    17    20    1
    41    17    21    1
    42    31    37    1
@<TRIPOS>MOLECULE
*****
 37 42 0 0 0
SMALL
GASTEIGER

@<TRIPOS>ATOM
      1 C         140.3871  142.9326  165.6099 C.2     1  UNL1       -0.0155
      2 C         139.3174  143.9460  165.8904 C.2     1  UNL1       -0.0023
      3 C         138.7567  144.7737  164.7722 C.2     1  UNL1        0.0203
      4 C         139.2657  144.5880  163.3734 C.2     1  UNL1        0.1007
      5 N         138.9066  145.2537  162.0780 N.2     1  UNL1       -0.1482
      6 N         139.7545  144.6517  160.9970 N.2     1  UNL1       -0.1467
      7 C         140.6375  143.6140  161.6242 C.2     1  UNL1        0.1199
      8 C         140.3354  143.5746  163.0929 C.2     1  UNL1        0.0225
      9 C         140.8961  142.7469  164.2112 C.3     1  UNL1        0.0559
     10 C         142.0693  140.4493  168.9646 C.ar    1  UNL1        0.0554
     11 C         142.8127  141.6592  168.4814 C.ar    1  UNL1        0.0046
     12 C         142.2520  142.4870  167.3631 C.ar    1  UNL1        0.0021
     13 C         140.9478  142.1048  166.7282 C.ar    1  UNL1        0.0238
     14 C         140.2044  140.8949  167.2114 C.ar    1  UNL1        0.1399
     15 F         138.9003  140.5128  166.5764 F       1  UNL1       -0.2042
     16 C         140.7651  140.0672  168.3296 C.ar    1  UNL1        0.0341
     17 N         142.7808  140.2147  171.4522 N.am    1  UNL1       -0.3253
     18 C         142.6300  139.6216  170.0828 C.2     1  UNL1        0.2428
     19 O         143.0399  138.2007  169.8316 O.2     1  UNL1       -0.2704
     20 H         143.1489  139.6714  172.1862 H       1  UNL1        0.1453
     21 H         142.5118  141.1473  171.6171 H       1  UNL1        0.1453
     22 C         141.6456  142.7647  160.9084 C.ar    1  UNL1        0.1226
     23 C         142.0781  143.1252  159.5181 C.ar    1  UNL1        0.1198
     24 N         143.0862  142.2759  158.8023 N.ar    1  UNL1       -0.2358
     25 C         143.6620  141.0662  159.4768 C.ar    1  UNL1        0.1564
     26 C         143.2295  140.7057  160.8671 C.ar    1  UNL1        0.2447
     27 N         142.2213  141.5549  161.5829 N.ar    1  UNL1       -0.2072
     28 O         143.8052  139.4958  161.5416 O.3     1  UNL1       -0.4615
     29 C         142.9656  138.6977  162.4946 C.3     1  UNL1        0.1830
     30 C         141.9224  137.7571  161.9682 C.3     1  UNL1        0.1127
     31 N         141.0828  136.9590  162.9212 N.3     1  UNL1       -0.2945
     32 C         141.2864  137.1014  164.4005 C.3     1  UNL1        0.0688
     33 C         142.3296  138.0421  164.9268 C.3     1  UNL1        0.0206
     34 C         143.1692  138.8401  163.9738 C.3     1  UNL1        0.0396
     35 C         144.2563  139.8440  163.7275 C.3     1  UNL1        0.0037
     36 C         143.8890  139.4655  165.1318 C.3     1  UNL1        0.0037
     37 H         141.2359  135.9760  162.6962 H       1  UNL1        0.1234
@<TRIPOS>BOND
     1    17    18   am
     2    18    19    2
     3    18    10    1
     4    10    11   ar
     5    11    12   ar
     6    12    13   ar
     7    13     1    1
     8     1     2    2
     9     2     3    1
    10     3     4    2
    11     4     5    1
    12     5     6    2
    13     6     7    1
    14     7    22    1
    15    22    23   ar
    16    23    24   ar
    17    24    25   ar
    18    25    26   ar
    19    26    28    1
    20    29    28    1
    21    29    30    1
    22    30    31    1
    23    31    32    1
    24    32    33    1
    25    33    34    1
    26    34    35    1
    27    35    36    1
    28    26    27   ar
    29     7     8    2
    30     8     9    1
    31    13    14   ar
    32    14    15    1
    33    14    16   ar
    34    16    10   ar
    35     9     1    1
    36     8     4    1
    37    27    22   ar
    38    34    29    1
    39    36    34    1
    40    17    20    1
    41    17    21    1
    42    31    37    1
@<TRIPOS>MOLECULE
*****
 37 42 0 0 0
SMALL
GASTEIGER

@<TRIPOS>ATOM
      1 C         142.3614  142.5051  165.9178 C.2     1  UNL1       -0.0155
      2 C         143.7761  142.9441  166.1545 C.2     1  UNL1       -0.0023
      3 C         144.5711  143.5481  165.0351 C.2     1  UNL1        0.0203
      4 C         143.9514  143.7132  163.6791 C.2     1  UNL1        0.1007
      5 N         144.4849  144.2713  162.3929 N.2     1  UNL1       -0.1482
      6 N         143.4000  144.1771  161.3615 N.2     1  UNL1       -0.1467
      7 C         142.1959  143.5610  162.0101 C.2     1  UNL1        0.1199
      8 C         142.5368  143.2743  163.4424 C.2     1  UNL1        0.0225
      9 C         141.7418  142.6702  164.5618 C.3     1  UNL1        0.0559
     10 C         139.9763  140.6928  169.2760 C.ar    1  UNL1        0.0554
     11 C         140.0532  142.1838  169.1302 C.ar    1  UNL1        0.0046
     12 C         140.8483  142.7879  168.0108 C.ar    1  UNL1        0.0021
     13 C         141.5664  141.9010  167.0372 C.ar    1  UNL1        0.0238
     14 C         141.4894  140.4101  167.1830 C.ar    1  UNL1        0.1399
     15 F         142.2075  139.5233  166.2093 F       1  UNL1       -0.2042
     16 C         140.6943  139.8060  168.3023 C.ar    1  UNL1        0.0341
     17 N         139.8712  139.2812  171.4545 N.am    1  UNL1       -0.3253
     18 C         139.1812  140.0887  170.3953 C.2     1  UNL1        0.2428
     19 O         137.6963  140.2922  170.4555 O.2     1  UNL1       -0.2704
     20 H         139.3494  138.8847  172.1892 H       1  UNL1        0.1453
     21 H         140.8458  139.1477  171.4150 H       1  UNL1        0.1453
     22 C         140.8818  143.2807  161.3434 C.ar    1  UNL1        0.1226
     23 C         140.5777  143.8811  160.0029 C.ar    1  UNL1        0.1198
     24 N         139.2636  143.6008  159.3362 N.ar    1  UNL1       -0.2358
     25 C         138.2535  142.7202  160.0100 C.ar    1  UNL1        0.1564
     26 C         138.5575  142.1198  161.3506 C.ar    1  UNL1        0.2447
     27 N         139.8717  142.4000  162.0172 N.ar    1  UNL1       -0.2072
     28 O         137.5474  141.2390  162.0245 O.3     1  UNL1       -0.4615
     29 C         137.9871  139.9734  162.6989 C.3     1  UNL1        0.1830
     30 C         138.1471  138.7142  161.8996 C.3     1  UNL1        0.1127
     31 N         138.5868  137.4486  162.5741 N.3     1  UNL1       -0.2945
     32 C         138.8664  137.4421  164.0478 C.3     1  UNL1        0.0688
     33 C         138.7064  138.7013  164.8470 C.3     1  UNL1        0.0206
     34 C         138.2667  139.9669  164.1726 C.3     1  UNL1        0.0396
     35 C         137.9205  141.4247  164.2446 C.3     1  UNL1        0.0037
     36 C         138.3358  140.6902  165.4848 C.3     1  UNL1        0.0037
     37 H         139.4449  137.1506  162.1102 H       1  UNL1        0.1234
@<TRIPOS>BOND
     1    17    18   am
     2    18    19    2
     3    18    10    1
     4    10    11   ar
     5    11    12   ar
     6    12    13   ar
     7    13     1    1
     8     1     2    2
     9     2     3    1
    10     3     4    2
    11     4     5    1
    12     5     6    2
    13     6     7    1
    14     7    22    1
    15    22    23   ar
    16    23    24   ar
    17    24    25   ar
    18    25    26   ar
    19    26    28    1
    20    29    28    1
    21    29    30    1
    22    30    31    1
    23    31    32    1
    24    32    33    1
    25    33    34    1
    26    34    35    1
    27    35    36    1
    28    26    27   ar
    29     7     8    2
    30     8     9    1
    31    13    14   ar
    32    14    15    1
    33    14    16   ar
    34    16    10   ar
    35     9     1    1
    36     8     4    1
    37    27    22   ar
    38    34    29    1
    39    36    34    1
    40    17    20    1
    41    17    21    1
    42    31    37    1
@<TRIPOS>MOLECULE
*****
 37 42 0 0 0
SMALL
GASTEIGER

@<TRIPOS>ATOM
      1 C         139.7101  139.2492  165.3515 C.2     1  UNL1       -0.0155
      2 C         139.1884  137.8677  165.0888 C.2     1  UNL1       -0.0023
      3 C         138.7637  137.4771  163.7043 C.2     1  UNL1        0.0203
      4 C         138.8607  138.4681  162.5824 C.2     1  UNL1        0.1007
      5 N         138.5195  138.3707  161.1249 N.2     1  UNL1       -0.1482
      6 N         138.8303  139.6922  160.4869 N.2     1  UNL1       -0.1467
      7 C         139.3636  140.6062  161.5500 C.2     1  UNL1        0.1199
      8 C         139.3824  139.8496  162.8451 C.2     1  UNL1        0.0225
      9 C         139.8071  140.2402  164.2297 C.3     1  UNL1        0.0559
     10 C         140.9844  140.4211  169.5052 C.ar    1  UNL1        0.0554
     11 C         139.5302  140.2245  169.1943 C.ar    1  UNL1        0.0046
     12 C         139.1055  139.8338  167.8097 C.ar    1  UNL1        0.0021
     13 C         140.1349  139.6399  166.7361 C.ar    1  UNL1        0.0238
     14 C         141.5891  139.8365  167.0470 C.ar    1  UNL1        0.1399
     15 F         142.6185  139.6426  165.9733 F       1  UNL1       -0.2042
     16 C         142.0139  140.2272  168.4315 C.ar    1  UNL1        0.0341
     17 N         142.7296  140.3466  171.4284 N.am    1  UNL1       -0.3253
     18 C         141.4092  140.8118  170.8897 C.2     1  UNL1        0.2428
     19 O         140.5136  141.6675  171.7356 O.2     1  UNL1       -0.2704
     20 H         143.0084  140.6030  172.3371 H       1  UNL1        0.1453
     21 H         143.3174  139.7849  170.8732 H       1  UNL1        0.1453
     22 C         139.8014  142.0273  161.3527 C.ar    1  UNL1        0.1226
     23 C         138.8097  143.0633  160.9132 C.ar    1  UNL1        0.1198
     24 N         139.2474  144.4844  160.7159 N.ar    1  UNL1       -0.2358
     25 C         140.6768  144.8695  160.9581 C.ar    1  UNL1        0.1564
     26 C         141.6684  143.8334  161.3977 C.ar    1  UNL1        0.2447
     27 N         141.2307  142.4123  161.5950 N.ar    1  UNL1       -0.2072
     28 O         143.0978  144.2184  161.6399 O.3     1  UNL1       -0.4615
     29 C         144.0075  143.2912  162.3900 C.3     1  UNL1        0.1830
     30 C         144.5905  142.0929  161.7013 C.3     1  UNL1        0.1127
     31 N         145.5002  141.1656  162.4514 N.3     1  UNL1       -0.2945
     32 C         145.8270  141.4366  163.8901 C.3     1  UNL1        0.0688
     33 C         145.2440  142.6349  164.5787 C.3     1  UNL1        0.0206
     34 C         144.3343  143.5622  163.8286 C.3     1  UNL1        0.0396
     35 C         143.4724  144.7894  163.7931 C.3     1  UNL1        0.0037
     36 C         144.1863  144.4105  165.0568 C.3     1  UNL1        0.0037
     37 H         146.3862  141.1498  161.9462 H       1  UNL1        0.1234
@<TRIPOS>BOND
     1    17    18   am
     2    18    19    2
     3    18    10    1
     4    10    11   ar
     5    11    12   ar
     6    12    13   ar
     7    13     1    1
     8     1     2    2
     9     2     3    1
    10     3     4    2
    11     4     5    1
    12     5     6    2
    13     6     7    1
    14     7    22    1
    15    22    23   ar
    16    23    24   ar
    17    24    25   ar
    18    25    26   ar
    19    26    28    1
    20    29    28    1
    21    29    30    1
    22    30    31    1
    23    31    32    1
    24    32    33    1
    25    33    34    1
    26    34    35    1
    27    35    36    1
    28    26    27   ar
    29     7     8    2
    30     8     9    1
    31    13    14   ar
    32    14    15    1
    33    14    16   ar
    34    16    10   ar
    35     9     1    1
    36     8     4    1
    37    27    22   ar
    38    34    29    1
    39    36    34    1
    40    17    20    1
    41    17    21    1
    42    31    37    1
@<TRIPOS>MOLECULE
*****
 37 42 0 0 0
SMALL
GASTEIGER

@<TRIPOS>ATOM
      1 C         140.5305  139.7154  166.1337 C.2     1  UNL1       -0.0155
      2 C         139.2186  139.0819  166.4906 C.2     1  UNL1       -0.0023
      3 C         138.4581  138.3006  165.4605 C.2     1  UNL1        0.0203
      4 C         139.0097  138.1527  164.0734 C.2     1  UNL1        0.1007
      5 N         138.4895  137.4467  162.8564 N.2     1  UNL1       -0.1482
      6 N         139.4800  137.6438  161.7474 N.2     1  UNL1       -0.1467
      7 C         140.6123  138.4716  162.2789 C.2     1  UNL1        0.1199
      8 C         140.3216  138.7861  163.7165 C.2     1  UNL1        0.0225
      9 C         141.0821  139.5675  164.7466 C.3     1  UNL1        0.0559
     10 C         142.8120  142.0595  169.2241 C.ar    1  UNL1        0.0554
     11 C         142.4895  140.6147  169.4660 C.ar    1  UNL1        0.0046
     12 C         141.7290  139.8333  168.4358 C.ar    1  UNL1        0.0021
     13 C         141.2910  140.4967  167.1638 C.ar    1  UNL1        0.0238
     14 C         141.6136  141.9415  166.9219 C.ar    1  UNL1        0.1399
     15 F         141.1756  142.6050  165.6498 F       1  UNL1       -0.2042
     16 C         142.3740  142.7229  167.9520 C.ar    1  UNL1        0.0341
     17 N         145.0702  142.8998  170.1958 N.am    1  UNL1       -0.3253
     18 C         143.5725  142.8409  170.2541 C.2     1  UNL1        0.2428
     19 O         142.8353  143.5633  171.3425 O.2     1  UNL1       -0.2704
     20 H         145.5693  143.4127  170.8719 H       1  UNL1        0.1453
     21 H         145.5540  142.4257  169.4814 H       1  UNL1        0.1453
     22 C         141.8229  138.9083  161.5083 C.ar    1  UNL1        0.1226
     23 C         142.2038  138.1969  160.2438 C.ar    1  UNL1        0.1198
     24 N         143.4144  138.6335  159.4732 N.ar    1  UNL1       -0.2358
     25 C         144.2439  139.7815  159.9668 C.ar    1  UNL1        0.1564
     26 C         143.8630  140.4930  161.2312 C.ar    1  UNL1        0.2447
     27 N         142.6524  140.0563  162.0019 N.ar    1  UNL1       -0.2072
     28 O         144.6926  141.6411  161.7250 O.3     1  UNL1       -0.4615
     29 C         144.0255  142.8598  162.2906 C.3     1  UNL1        0.1830
     30 C         143.1400  143.7019  161.4206 C.3     1  UNL1        0.1127
     31 N         142.4730  144.9206  161.9862 N.3     1  UNL1       -0.2945
     32 C         142.6913  145.2972  163.4217 C.3     1  UNL1        0.0688
     33 C         143.5768  144.4550  164.2915 C.3     1  UNL1        0.0206
     34 C         144.2439  143.2363  163.7260 C.3     1  UNL1        0.0396
     35 C         145.1403  142.0464  163.9017 C.3     1  UNL1        0.0037
     36 C         144.8812  142.9675  165.0570 C.3     1  UNL1        0.0037
     37 H         141.4687  144.7891  161.8657 H       1  UNL1        0.1234
@<TRIPOS>BOND
     1    17    18   am
     2    18    19    2
     3    18    10    1
     4    10    11   ar
     5    11    12   ar
     6    12    13   ar
     7    13     1    1
     8     1     2    2
     9     2     3    1
    10     3     4    2
    11     4     5    1
    12     5     6    2
    13     6     7    1
    14     7    22    1
    15    22    23   ar
    16    23    24   ar
    17    24    25   ar
    18    25    26   ar
    19    26    28    1
    20    29    28    1
    21    29    30    1
    22    30    31    1
    23    31    32    1
    24    32    33    1
    25    33    34    1
    26    34    35    1
    27    35    36    1
    28    26    27   ar
    29     7     8    2
    30     8     9    1
    31    13    14   ar
    32    14    15    1
    33    14    16   ar
    34    16    10   ar
    35     9     1    1
    36     8     4    1
    37    27    22   ar
    38    34    29    1
    39    36    34    1
    40    17    20    1
    41    17    21    1
    42    31    37    1
@<TRIPOS>MOLECULE
*****
 37 42 0 0 0
SMALL
GASTEIGER

@<TRIPOS>ATOM
      1 C         139.8867  142.8091  164.8025 C.2     1  UNL1       -0.0155
      2 C         139.3571  144.2119  164.8437 C.2     1  UNL1       -0.0023
      3 C         139.1542  144.9747  163.5682 C.2     1  UNL1        0.0203
      4 C         139.4809  144.3347  162.2515 C.2     1  UNL1        0.1007
      5 N         139.3851  144.8357  160.8408 N.2     1  UNL1       -0.1482
      6 N         139.8556  143.7425  159.9278 N.2     1  UNL1       -0.1467
      7 C         140.2420  142.5659  160.7742 C.2     1  UNL1        0.1199
      8 C         140.0104  142.9319  162.2103 C.2     1  UNL1        0.0225
      9 C         140.2133  142.1691  163.4858 C.3     1  UNL1        0.0559
     10 C         140.4954  140.5206  168.6290 C.ar    1  UNL1        0.0554
     11 C         141.2427  141.7996  168.3931 C.ar    1  UNL1        0.0046
     12 C         141.0397  142.5625  167.1176 C.ar    1  UNL1        0.0021
     13 C         140.0896  142.0463  166.0780 C.ar    1  UNL1        0.0238
     14 C         139.3424  140.7672  166.3139 C.ar    1  UNL1        0.1399
     15 F         138.3922  140.2510  165.2742 F       1  UNL1       -0.2042
     16 C         139.5453  140.0044  167.5893 C.ar    1  UNL1        0.0341
     17 N         142.0118  139.0860  170.1757 N.am    1  UNL1       -0.3253
     18 C         140.6983  139.7577  169.9045 C.2     1  UNL1        0.2428
     19 O         139.5878  139.6666  170.9086 O.2     1  UNL1       -0.2704
     20 H         142.1449  138.5853  171.0129 H       1  UNL1        0.1453
     21 H         142.7406  139.1458  169.5167 H       1  UNL1        0.1453
     22 C         140.7677  141.2537  160.2725 C.ar    1  UNL1        0.1226
     23 C         140.8239  140.9824  158.7983 C.ar    1  UNL1        0.1198
     24 N         141.3496  139.6702  158.2967 N.ar    1  UNL1       -0.2358
     25 C         141.8192  138.6292  159.2692 C.ar    1  UNL1        0.1564
     26 C         141.7630  138.9005  160.7434 C.ar    1  UNL1        0.2447
     27 N         141.2373  140.2127  161.2450 N.ar    1  UNL1       -0.2072
     28 O         142.2326  137.8594  161.7160 O.3     1  UNL1       -0.4615
     29 C         142.6742  138.2630  163.0915 C.3     1  UNL1        0.1830
     30 C         144.0027  138.9318  163.2865 C.3     1  UNL1        0.1127
     31 N         144.4443  139.3354  164.6620 N.3     1  UNL1       -0.2945
     32 C         143.5576  139.0703  165.8426 C.3     1  UNL1        0.0688
     33 C         142.2292  138.4015  165.6474 C.3     1  UNL1        0.0206
     34 C         141.7875  137.9979  164.2719 C.3     1  UNL1        0.0396
     35 C         140.7655  137.3787  163.3651 C.3     1  UNL1        0.0037
     36 C         140.5086  137.4587  164.8408 C.3     1  UNL1        0.0037
     37 H         144.6064  140.3421  164.6357 H       1  UNL1        0.1234
@<TRIPOS>BOND
     1    17    18   am
     2    18    19    2
     3    18    10    1
     4    10    11   ar
     5    11    12   ar
     6    12    13   ar
     7    13     1    1
     8     1     2    2
     9     2     3    1
    10     3     4    2
    11     4     5    1
    12     5     6    2
    13     6     7    1
    14     7    22    1
    15    22    23   ar
    16    23    24   ar
    17    24    25   ar
    18    25    26   ar
    19    26    28    1
    20    29    28    1
    21    29    30    1
    22    30    31    1
    23    31    32    1
    24    32    33    1
    25    33    34    1
    26    34    35    1
    27    35    36    1
    28    26    27   ar
    29     7     8    2
    30     8     9    1
    31    13    14   ar
    32    14    15    1
    33    14    16   ar
    34    16    10   ar
    35     9     1    1
    36     8     4    1
    37    27    22   ar
    38    34    29    1
    39    36    34    1
    40    17    20    1
    41    17    21    1
    42    31    37    1
@<TRIPOS>MOLECULE
*****
 37 42 0 0 0
SMALL
GASTEIGER

@<TRIPOS>ATOM
      1 C         141.5518  138.9488  162.4828 C.2     1  UNL1       -0.0155
      2 C         142.4089  137.7897  162.0684 C.2     1  UNL1       -0.0023
      3 C         143.2975  137.9063  160.8656 C.2     1  UNL1        0.0203
      4 C         143.3291  139.1820  160.0773 C.2     1  UNL1        0.1007
      5 N         144.0994  139.5883  158.8558 N.2     1  UNL1       -0.1482
      6 N         143.7183  140.9985  158.5154 N.2     1  UNL1       -0.1467
      7 C         142.7126  141.4638  159.5264 C.2     1  UNL1        0.1199
      8 C         142.4721  140.3412  160.4916 C.2     1  UNL1        0.0225
      9 C         141.5834  140.2246  161.6944 C.3     1  UNL1        0.0559
     10 C         138.8858  138.5992  166.0911 C.ar    1  UNL1        0.0554
     11 C         138.6462  137.7273  164.8944 C.ar    1  UNL1        0.0046
     12 C         139.5350  137.8438  163.6916 C.ar    1  UNL1        0.0021
     13 C         140.6631  138.8323  163.6856 C.ar    1  UNL1        0.0238
     14 C         140.9026  139.7043  164.8823 C.ar    1  UNL1        0.1399
     15 F         142.0309  140.6928  164.8763 F       1  UNL1       -0.2042
     16 C         140.0140  139.5878  166.0851 C.ar    1  UNL1        0.0341
     17 N         136.9674  137.3943  167.3629 N.am    1  UNL1       -0.3253
     18 C         137.9971  138.4827  167.2939 C.2     1  UNL1        0.2428
     19 O         138.1382  139.4547  168.4276 O.2     1  UNL1       -0.2704
     20 H         136.3841  137.3178  168.1524 H       1  UNL1        0.1453
     21 H         136.8748  136.7563  166.6188 H       1  UNL1        0.1453
     22 C         142.0616  142.8147  159.5653 C.ar    1  UNL1        0.1226
     23 C         142.5601  143.9134  158.6741 C.ar    1  UNL1        0.1198
     24 N         141.9092  145.2642  158.7130 N.ar    1  UNL1       -0.2358
     25 C         140.7597  145.5164  159.6431 C.ar    1  UNL1        0.1564
     26 C         140.2612  144.4176  160.5343 C.ar    1  UNL1        0.2447
     27 N         140.9122  143.0668  160.4954 N.ar    1  UNL1       -0.2072
     28 O         139.1117  144.6698  161.4645 O.3     1  UNL1       -0.4615
     29 C         138.5407  143.5432  162.2737 C.3     1  UNL1        0.1830
     30 C         137.8522  142.4007  161.5875 C.3     1  UNL1        0.1127
     31 N         137.2812  141.2742  162.3967 N.3     1  UNL1       -0.2945
     32 C         137.3986  141.2900  163.8921 C.3     1  UNL1        0.0688
     33 C         138.0871  142.4325  164.5782 C.3     1  UNL1        0.0206
     34 C         138.6581  143.5591  163.7690 C.3     1  UNL1        0.0396
     35 C         139.3853  144.8692  163.6979 C.3     1  UNL1        0.0037
     36 C         139.1234  144.2279  165.0284 C.3     1  UNL1        0.0037
     37 H         137.7365  140.4201  162.0746 H       1  UNL1        0.1234
@<TRIPOS>BOND
     1    17    18   am
     2    18    19    2
     3    18    10    1
     4    10    11   ar
     5    11    12   ar
     6    12    13   ar
     7    13     1    1
     8     1     2    2
     9     2     3    1
    10     3     4    2
    11     4     5    1
    12     5     6    2
    13     6     7    1
    14     7    22    1
    15    22    23   ar
    16    23    24   ar
    17    24    25   ar
    18    25    26   ar
    19    26    28    1
    20    29    28    1
    21    29    30    1
    22    30    31    1
    23    31    32    1
    24    32    33    1
    25    33    34    1
    26    34    35    1
    27    35    36    1
    28    26    27   ar
    29     7     8    2
    30     8     9    1
    31    13    14   ar
    32    14    15    1
    33    14    16   ar
    34    16    10   ar
    35     9     1    1
    36     8     4    1
    37    27    22   ar
    38    34    29    1
    39    36    34    1
    40    17    20    1
    41    17    21    1
    42    31    37    1
@<TRIPOS>MOLECULE
*****
 37 42 0 0 0
SMALL
GASTEIGER

@<TRIPOS>ATOM
      1 C         140.9387  143.2903  164.2383 C.2     1  UNL1       -0.0155
      2 C         140.8880  144.7884  164.1815 C.2     1  UNL1       -0.0023
      3 C         140.4685  145.4772  162.9168 C.2     1  UNL1        0.0203
      4 C         140.0996  144.6679  161.7089 C.2     1  UNL1        0.1007
      5 N         139.6509  145.0647  160.3337 N.2     1  UNL1       -0.1482
      6 N         139.4244  143.8119  159.5405 N.2     1  UNL1       -0.1467
      7 C         139.7330  142.6408  160.4256 C.2     1  UNL1        0.1199
      8 C         140.1502  143.1699  161.7657 C.2     1  UNL1        0.0225
      9 C         140.5698  142.4811  163.0304 C.3     1  UNL1        0.0559
     10 C         142.1975  141.2238  168.0325 C.ar    1  UNL1        0.0554
     11 C         140.7583  141.2051  167.6103 C.ar    1  UNL1        0.0046
     12 C         140.3387  141.8939  166.3455 C.ar    1  UNL1        0.0021
     13 C         141.3583  142.6015  165.5031 C.ar    1  UNL1        0.0238
     14 C         142.7975  142.6202  165.9253 C.ar    1  UNL1        0.1399
     15 F         143.8172  143.3278  165.0828 F       1  UNL1       -0.2042
     16 C         143.2172  141.9314  167.1900 C.ar    1  UNL1        0.0341
     17 N         142.7481  141.3182  170.5697 N.am    1  UNL1       -0.3253
     18 C         142.6172  140.5350  169.2972 C.2     1  UNL1        0.2428
     19 O         142.9058  139.0631  169.2892 O.2     1  UNL1       -0.2704
     20 H         143.0235  140.8661  171.3998 H       1  UNL1        0.1453
     21 H         142.5587  142.2843  170.5749 H       1  UNL1        0.1453
     22 C         139.6405  141.1946  160.0385 C.ar    1  UNL1        0.1226
     23 C         139.1044  140.8117  158.6910 C.ar    1  UNL1        0.1198
     24 N         139.0119  139.3654  158.3039 N.ar    1  UNL1       -0.2358
     25 C         139.4555  138.3021  159.2643 C.ar    1  UNL1        0.1564
     26 C         139.9917  138.6850  160.6119 C.ar    1  UNL1        0.2447
     27 N         140.0841  140.1312  160.9989 N.ar    1  UNL1       -0.2072
     28 O         140.4353  137.6216  161.5724 O.3     1  UNL1       -0.4615
     29 C         141.2750  137.9871  162.7604 C.3     1  UNL1        0.1830
     30 C         142.7298  138.3056  162.5810 C.3     1  UNL1        0.1127
     31 N         143.5695  138.6711  163.7690 N.3     1  UNL1       -0.2945
     32 C         142.9545  138.7180  165.1364 C.3     1  UNL1        0.0688
     33 C         141.4997  138.3995  165.3157 C.3     1  UNL1        0.0206
     34 C         140.6600  138.0340  164.1277 C.3     1  UNL1        0.0396
     35 C         139.3352  137.6391  163.5452 C.3     1  UNL1        0.0037
     36 C         139.4650  137.8772  165.0206 C.3     1  UNL1        0.0037
     37 H         143.9509  139.5992  163.5857 H       1  UNL1        0.1234
@<TRIPOS>BOND
     1    17    18   am
     2    18    19    2
     3    18    10    1
     4    10    11   ar
     5    11    12   ar
     6    12    13   ar
     7    13     1    1
     8     1     2    2
     9     2     3    1
    10     3     4    2
    11     4     5    1
    12     5     6    2
    13     6     7    1
    14     7    22    1
    15    22    23   ar
    16    23    24   ar
    17    24    25   ar
    18    25    26   ar
    19    26    28    1
    20    29    28    1
    21    29    30    1
    22    30    31    1
    23    31    32    1
    24    32    33    1
    25    33    34    1
    26    34    35    1
    27    35    36    1
    28    26    27   ar
    29     7     8    2
    30     8     9    1
    31    13    14   ar
    32    14    15    1
    33    14    16   ar
    34    16    10   ar
    35     9     1    1
    36     8     4    1
    37    27    22   ar
    38    34    29    1
    39    36    34    1
    40    17    20    1
    41    17    21    1
    42    31    37    1
@<TRIPOS>MOLECULE
*****
 37 42 0 0 0
SMALL
GASTEIGER

@<TRIPOS>ATOM
      1 C         142.5014  140.2614  164.3977 C.2     1  UNL1       -0.0155
      2 C         143.7693  139.4621  164.4552 C.2     1  UNL1       -0.0023
      3 C         144.4004  138.9646  163.1886 C.2     1  UNL1        0.0203
      4 C         143.7634  139.2665  161.8646 C.2     1  UNL1        0.1007
      5 N         144.1520  138.9120  160.4597 N.2     1  UNL1       -0.1482
      6 N         143.1242  139.4922  159.5341 N.2     1  UNL1       -0.1467
      7 C         142.1004  140.2053  160.3668 C.2     1  UNL1        0.1199
      8 C         142.4954  140.0658  161.8071 C.2     1  UNL1        0.0225
      9 C         141.8644  140.5632  163.0737 C.3     1  UNL1        0.0559
     10 C         140.6081  141.7539  168.1976 C.ar    1  UNL1        0.0554
     11 C         141.8382  142.4228  167.6595 C.ar    1  UNL1        0.0046
     12 C         142.4693  141.9253  166.3929 C.ar    1  UNL1        0.0021
     13 C         141.8703  140.7589  165.6644 C.ar    1  UNL1        0.0238
     14 C         140.6402  140.0901  166.2024 C.ar    1  UNL1        0.1399
     15 F         140.0412  138.9237  165.4738 F       1  UNL1       -0.2042
     16 C         140.0091  140.5875  167.4690 C.ar    1  UNL1        0.0341
     17 N         139.2825  141.2909  170.3835 N.am    1  UNL1       -0.3253
     18 C         139.9771  142.2514  169.4641 C.2     1  UNL1        0.2428
     19 O         140.0405  143.7092  169.8114 O.2     1  UNL1       -0.2704
     20 H         138.8683  141.6174  171.2148 H       1  UNL1        0.1453
     21 H         139.2409  140.3341  170.1555 H       1  UNL1        0.1453
     22 C         140.8934  140.9306  159.8499 C.ar    1  UNL1        0.1226
     23 C         140.6419  141.0109  158.3733 C.ar    1  UNL1        0.1198
     24 N         139.4349  141.7362  157.8565 N.ar    1  UNL1       -0.2358
     25 C         138.4794  142.3812  158.8161 C.ar    1  UNL1        0.1564
     26 C         138.7310  142.3009  160.2927 C.ar    1  UNL1        0.2447
     27 N         139.9379  141.5756  160.8096 N.ar    1  UNL1       -0.2072
     28 O         137.7754  142.9459  161.2525 O.3     1  UNL1       -0.4615
     29 C         138.2769  143.4937  162.5558 C.3     1  UNL1        0.1830
     30 C         138.9275  144.8445  162.6009 C.3     1  UNL1        0.1127
     31 N         139.4289  145.3922  163.9042 N.3     1  UNL1       -0.2945
     32 C         139.2798  144.5892  165.1624 C.3     1  UNL1        0.0688
     33 C         138.6291  143.2384  165.1172 C.3     1  UNL1        0.0206
     34 C         138.1277  142.6907  163.8139 C.3     1  UNL1        0.0396
     35 C         137.4626  141.5945  163.0353 C.3     1  UNL1        0.0037
     36 C         137.6660  141.4471  164.5142 C.3     1  UNL1        0.0037
     37 H         138.9425  146.2753  164.0591 H       1  UNL1        0.1234
@<TRIPOS>BOND
     1    17    18   am
     2    18    19    2
     3    18    10    1
     4    10    11   ar
     5    11    12   ar
     6    12    13   ar
     7    13     1    1
     8     1     2    2
     9     2     3    1
    10     3     4    2
    11     4     5    1
    12     5     6    2
    13     6     7    1
    14     7    22    1
    15    22    23   ar
    16    23    24   ar
    17    24    25   ar
    18    25    26   ar
    19    26    28    1
    20    29    28    1
    21    29    30    1
    22    30    31    1
    23    31    32    1
    24    32    33    1
    25    33    34    1
    26    34    35    1
    27    35    36    1
    28    26    27   ar
    29     7     8    2
    30     8     9    1
    31    13    14   ar
    32    14    15    1
    33    14    16   ar
    34    16    10   ar
    35     9     1    1
    36     8     4    1
    37    27    22   ar
    38    34    29    1
    39    36    34    1
    40    17    20    1
    41    17    21    1
    42    31    37    1
