@<TRIPOS>MOLECULE
*****
 33 35 0 0 0
SMALL
GASTEIGER

@<TRIPOS>ATOM
      1 C         140.6455  142.3640  165.9071 C.3     1  UNL1        0.1169
      2 C         141.2116  142.5424  167.2846 C.ar    1  UNL1       -0.0003
      3 C         140.3593  143.1171  168.3770 C.ar    1  UNL1       -0.0024
      4 C         140.9254  143.2956  169.7546 C.ar    1  UNL1       -0.0003
      5 C         142.3437  142.8993  170.0398 C.ar    1  UNL1       -0.0000
      6 C         143.1959  142.3245  168.9474 C.ar    1  UNL1       -0.0003
      7 C         142.6299  142.1461  167.5698 C.ar    1  UNL1       -0.0024
      8 C         140.2180  141.0034  165.4423 C.ar    1  UNL1       -0.0004
      9 C         140.7340  140.4581  164.1436 C.ar    1  UNL1       -0.0024
     10 C         140.3065  139.0975  163.6788 C.ar    1  UNL1       -0.0003
     11 C         139.3630  138.2823  164.5127 C.ar    1  UNL1        0.0038
     12 C         138.8471  138.8276  165.8113 C.ar    1  UNL1        0.0712
     13 C         139.2746  140.1882  166.2761 C.ar    1  UNL1        0.0015
     14 C         137.9038  138.0123  166.6451 C.3     1  UNL1        0.4186
     15 F         136.9603  137.1969  167.4790 F       1  UNL1       -0.1659
     16 F         137.6150  139.2147  167.4941 F       1  UNL1       -0.1659
     17 F         138.1925  136.8099  165.7962 F       1  UNL1       -0.1659
     18 O         143.0010  143.3076  164.3065 O.2     1  UNL1       -0.2732
     19 C         141.6847  144.0180  164.1940 C.2     1  UNL1        0.2430
     20 N         140.5070  143.5463  164.9942 N.am    1  UNL1       -0.2972
     21 H         139.6430  144.0125  164.9204 H       1  UNL1        0.1500
     22 C         141.5461  145.2002  163.2812 C.3     1  UNL1        0.1759
     23 N         141.9554  145.0888  161.8423 N.am    1  UNL1       -0.2931
     24 C         140.9131  145.0926  160.7637 C.2     1  UNL1        0.2462
     25 O         139.4615  145.2076  161.1237 O.2     1  UNL1       -0.2701
     26 H         142.9081  145.0134  161.6060 H       1  UNL1        0.1502
     27 C         141.3224  144.9813  159.3248 C.ar    1  UNL1        0.0535
     28 C         142.3602  143.9786  158.9157 C.ar    1  UNL1        0.0068
     29 C         142.7695  143.8673  157.4770 C.ar    1  UNL1        0.0298
     30 C         142.1409  144.7587  156.4473 C.ar    1  UNL1        0.1401
     31 F         142.5502  144.6474  155.0085 F       1  UNL1       -0.2042
     32 C         141.1030  145.7614  156.8564 C.ar    1  UNL1        0.0298
     33 C         140.6938  145.8727  158.2952 C.ar    1  UNL1        0.0068
@<TRIPOS>BOND
     1    18    19    2
     2    19    22    1
     3    22    23    1
     4    23    24   am
     5    24    25    2
     6    24    27    1
     7    27    28   ar
     8    28    29   ar
     9    29    30   ar
    10    30    31    1
    11    30    32   ar
    12    32    33   ar
    13    19    20   am
    14    20     1    1
    15     1     2    1
    16     2     3   ar
    17     3     4   ar
    18     4     5   ar
    19     5     6   ar
    20     6     7   ar
    21     1     8    1
    22     8     9   ar
    23     9    10   ar
    24    10    11   ar
    25    11    12   ar
    26    12    14    1
    27    14    15    1
    28    14    16    1
    29    14    17    1
    30    12    13   ar
    31    33    27   ar
    32     7     2   ar
    33    13     8   ar
    34    23    26    1
    35    20    21    1
@<TRIPOS>MOLECULE
*****
 33 35 0 0 0
SMALL
GASTEIGER

@<TRIPOS>ATOM
      1 C         141.8420  141.6072  166.1982 C.3     1  UNL1        0.1169
      2 C         141.9587  142.1307  167.5990 C.ar    1  UNL1       -0.0003
      3 C         140.7812  142.7901  168.2537 C.ar    1  UNL1       -0.0024
      4 C         140.8979  143.3137  169.6546 C.ar    1  UNL1       -0.0003
      5 C         142.1921  143.1779  170.4006 C.ar    1  UNL1       -0.0000
      6 C         143.3696  142.5184  169.7459 C.ar    1  UNL1       -0.0003
      7 C         143.2529  141.9949  168.3451 C.ar    1  UNL1       -0.0024
      8 C         140.5256  141.0911  165.6977 C.ar    1  UNL1       -0.0004
      9 C         139.7691  141.8552  164.6518 C.ar    1  UNL1       -0.0024
     10 C         138.4526  141.3391  164.1512 C.ar    1  UNL1       -0.0003
     11 C         137.8927  140.0588  164.6966 C.ar    1  UNL1        0.0038
     12 C         138.6491  139.2947  165.7424 C.ar    1  UNL1        0.0712
     13 C         139.9656  139.8109  166.2430 C.ar    1  UNL1        0.0015
     14 C         138.0891  138.0145  166.2878 C.3     1  UNL1        0.4186
     15 F         137.5291  136.7343  166.8331 F       1  UNL1       -0.1659
     16 F         138.8649  137.2393  165.2645 F       1  UNL1       -0.1659
     17 F         137.3134  138.7897  167.3111 F       1  UNL1       -0.1659
     18 O         143.3698  139.0635  165.7559 O.2     1  UNL1       -0.2732
     19 C         143.8057  140.3279  165.0768 C.2     1  UNL1        0.2430
     20 N         143.0418  141.5998  165.2979 N.am    1  UNL1       -0.2972
     21 H         143.3279  142.4296  164.8522 H       1  UNL1        0.1500
     22 C         145.0054  140.3205  164.1765 C.3     1  UNL1        0.1759
     23 N         144.8275  140.2165  162.6907 N.am    1  UNL1       -0.2931
     24 C         144.3459  141.4021  161.9082 C.2     1  UNL1        0.2462
     25 O         144.0421  142.6917  162.6114 O.2     1  UNL1       -0.2701
     26 H         145.0269  139.3701  162.2291 H       1  UNL1        0.1502
     27 C         144.1680  141.2981  160.4223 C.ar    1  UNL1        0.0535
     28 C         144.5286  142.4569  159.5409 C.ar    1  UNL1        0.0068
     29 C         144.3508  142.3529  158.0551 C.ar    1  UNL1        0.0298
     30 C         143.8122  141.0900  157.4508 C.ar    1  UNL1        0.1401
     31 F         143.6344  140.9860  155.9650 F       1  UNL1       -0.2042
     32 C         143.4516  139.9312  158.3323 C.ar    1  UNL1        0.0298
     33 C         143.6295  140.0353  159.8180 C.ar    1  UNL1        0.0068
@<TRIPOS>BOND
     1    18    19    2
     2    19    22    1
     3    22    23    1
     4    23    24   am
     5    24    25    2
     6    24    27    1
     7    27    28   ar
     8    28    29   ar
     9    29    30   ar
    10    30    31    1
    11    30    32   ar
    12    32    33   ar
    13    19    20   am
    14    20     1    1
    15     1     2    1
    16     2     3   ar
    17     3     4   ar
    18     4     5   ar
    19     5     6   ar
    20     6     7   ar
    21     1     8    1
    22     8     9   ar
    23     9    10   ar
    24    10    11   ar
    25    11    12   ar
    26    12    14    1
    27    14    15    1
    28    14    16    1
    29    14    17    1
    30    12    13   ar
    31    33    27   ar
    32     7     2   ar
    33    13     8   ar
    34    23    26    1
    35    20    21    1
@<TRIPOS>MOLECULE
*****
 33 35 0 0 0
SMALL
GASTEIGER

@<TRIPOS>ATOM
      1 C         141.3835  142.2684  165.9584 C.3     1  UNL1        0.1169
      2 C         141.6864  142.4963  167.4097 C.ar    1  UNL1       -0.0003
      3 C         143.0470  142.1722  167.9516 C.ar    1  UNL1       -0.0024
      4 C         143.3500  142.4001  169.4030 C.ar    1  UNL1       -0.0003
      5 C         142.2925  142.9521  170.3123 C.ar    1  UNL1       -0.0000
      6 C         140.9318  143.2762  169.7702 C.ar    1  UNL1       -0.0003
      7 C         140.6289  143.0483  168.3190 C.ar    1  UNL1       -0.0024
      8 C         140.9639  140.9085  165.4844 C.ar    1  UNL1       -0.0004
      9 C         141.6982  140.2484  164.3551 C.ar    1  UNL1       -0.0024
     10 C         141.2786  138.8885  163.8811 C.ar    1  UNL1       -0.0003
     11 C         140.1249  138.1888  164.5363 C.ar    1  UNL1        0.0038
     12 C         139.3907  138.8489  165.6655 C.ar    1  UNL1        0.0712
     13 C         139.8102  140.2088  166.1395 C.ar    1  UNL1        0.0015
     14 C         138.2370  138.1492  166.3206 C.3     1  UNL1        0.4186
     15 F         137.0832  137.4495  166.9759 F       1  UNL1       -0.1659
     16 F         138.4177  136.9836  165.3940 F       1  UNL1       -0.1659
     17 F         138.0562  139.3148  167.2472 F       1  UNL1       -0.1659
     18 O         144.0627  143.0024  164.8257 O.2     1  UNL1       -0.2732
     19 C         142.8396  143.7674  164.4148 C.2     1  UNL1        0.2430
     20 N         141.5000  143.4004  164.9811 N.am    1  UNL1       -0.2972
     21 H         140.6973  143.9025  164.7114 H       1  UNL1        0.1500
     22 C         142.9561  144.8993  163.4375 C.3     1  UNL1        0.1759
     23 N         142.5292  144.7068  162.0124 N.am    1  UNL1       -0.2931
     24 C         141.0785  144.8057  161.6442 C.2     1  UNL1        0.2462
     25 O         140.0546  145.0971  162.7010 O.2     1  UNL1       -0.2701
     26 H         143.2012  144.5156  161.3188 H       1  UNL1        0.1502
     27 C         140.6516  144.6132  160.2191 C.ar    1  UNL1        0.0535
     28 C         141.1388  145.5533  159.1568 C.ar    1  UNL1        0.0068
     29 C         140.7119  145.3608  157.7318 C.ar    1  UNL1        0.0298
     30 C         139.7978  144.2281  157.3692 C.ar    1  UNL1        0.1401
     31 F         139.3708  144.0356  155.9441 F       1  UNL1       -0.2042
     32 C         139.3106  143.2880  158.4316 C.ar    1  UNL1        0.0298
     33 C         139.7375  143.4805  159.8566 C.ar    1  UNL1        0.0068
@<TRIPOS>BOND
     1    18    19    2
     2    19    22    1
     3    22    23    1
     4    23    24   am
     5    24    25    2
     6    24    27    1
     7    27    28   ar
     8    28    29   ar
     9    29    30   ar
    10    30    31    1
    11    30    32   ar
    12    32    33   ar
    13    19    20   am
    14    20     1    1
    15     1     2    1
    16     2     3   ar
    17     3     4   ar
    18     4     5   ar
    19     5     6   ar
    20     6     7   ar
    21     1     8    1
    22     8     9   ar
    23     9    10   ar
    24    10    11   ar
    25    11    12   ar
    26    12    14    1
    27    14    15    1
    28    14    16    1
    29    14    17    1
    30    12    13   ar
    31    33    27   ar
    32     7     2   ar
    33    13     8   ar
    34    23    26    1
    35    20    21    1
@<TRIPOS>MOLECULE
*****
 33 35 0 0 0
SMALL
GASTEIGER

@<TRIPOS>ATOM
      1 C         141.1066  141.8027  165.4902 C.3     1  UNL1        0.1169
      2 C         140.0179  142.6036  164.8396 C.ar    1  UNL1       -0.0003
      3 C         138.6633  141.9950  164.6283 C.ar    1  UNL1       -0.0024
      4 C         137.5745  142.7959  163.9777 C.ar    1  UNL1       -0.0003
      5 C         137.8403  144.2052  163.5385 C.ar    1  UNL1       -0.0000
      6 C         139.1950  144.8138  163.7498 C.ar    1  UNL1       -0.0003
      7 C         140.2837  144.0129  164.4004 C.ar    1  UNL1       -0.0024
      8 C         141.5418  142.1257  166.8888 C.ar    1  UNL1       -0.0004
      9 C         142.9941  142.0548  167.2577 C.ar    1  UNL1       -0.0024
     10 C         143.4293  142.3778  168.6564 C.ar    1  UNL1       -0.0003
     11 C         142.4122  142.7718  169.6862 C.ar    1  UNL1        0.0038
     12 C         140.9600  142.8427  169.3173 C.ar    1  UNL1        0.0712
     13 C         140.5248  142.5197  167.9186 C.ar    1  UNL1        0.0015
     14 C         139.9430  143.2367  170.3471 C.3     1  UNL1        0.4186
     15 F         138.9260  143.6307  171.3769 F       1  UNL1       -0.1659
     16 F         139.5584  141.7970  170.5180 F       1  UNL1       -0.1659
     17 F         140.3276  144.6764  170.1761 F       1  UNL1       -0.1659
     18 O         140.1719  138.9821  165.9032 O.2     1  UNL1       -0.2732
     19 C         141.2929  139.2685  164.9485 C.2     1  UNL1        0.2430
     20 N         141.7603  140.6788  164.7420 N.am    1  UNL1       -0.2972
     21 H         142.4960  140.8667  164.1155 H       1  UNL1        0.1500
     22 C         141.9465  138.1447  164.2004 C.3     1  UNL1        0.1759
     23 N         141.5607  137.8663  162.7778 N.am    1  UNL1       -0.2931
     24 C         142.0967  138.7279  161.6731 C.2     1  UNL1        0.2462
     25 O         143.0183  139.8678  161.9909 O.2     1  UNL1       -0.2701
     26 H         140.9558  137.1181  162.5692 H       1  UNL1        0.1502
     27 C         141.7109  138.4495  160.2505 C.ar    1  UNL1        0.0535
     28 C         140.2913  138.6434  159.8066 C.ar    1  UNL1        0.0068
     29 C         139.9057  138.3650  158.3840 C.ar    1  UNL1        0.0298
     30 C         140.9396  137.8927  157.4053 C.ar    1  UNL1        0.1401
     31 F         140.5539  137.6143  155.9827 F       1  UNL1       -0.2042
     32 C         142.3592  137.6987  157.8492 C.ar    1  UNL1        0.0298
     33 C         142.7449  137.9771  159.2717 C.ar    1  UNL1        0.0068
@<TRIPOS>BOND
     1    18    19    2
     2    19    22    1
     3    22    23    1
     4    23    24   am
     5    24    25    2
     6    24    27    1
     7    27    28   ar
     8    28    29   ar
     9    29    30   ar
    10    30    31    1
    11    30    32   ar
    12    32    33   ar
    13    19    20   am
    14    20     1    1
    15     1     2    1
    16     2     3   ar
    17     3     4   ar
    18     4     5   ar
    19     5     6   ar
    20     6     7   ar
    21     1     8    1
    22     8     9   ar
    23     9    10   ar
    24    10    11   ar
    25    11    12   ar
    26    12    14    1
    27    14    15    1
    28    14    16    1
    29    14    17    1
    30    12    13   ar
    31    33    27   ar
    32     7     2   ar
    33    13     8   ar
    34    23    26    1
    35    20    21    1
@<TRIPOS>MOLECULE
*****
 33 35 0 0 0
SMALL
GASTEIGER

@<TRIPOS>ATOM
      1 C         141.3475  142.1609  165.5438 C.3     1  UNL1        0.1169
      2 C         140.4683  141.0174  165.1325 C.ar    1  UNL1       -0.0003
      3 C         139.0262  141.2620  164.8003 C.ar    1  UNL1       -0.0024
      4 C         138.1468  140.1184  164.3890 C.ar    1  UNL1       -0.0003
      5 C         138.7097  138.7302  164.3100 C.ar    1  UNL1       -0.0000
      6 C         140.1519  138.4857  164.6423 C.ar    1  UNL1       -0.0003
      7 C         141.0311  139.6292  165.0535 C.ar    1  UNL1       -0.0024
      8 C         141.6945  142.3579  166.9898 C.ar    1  UNL1       -0.0004
      9 C         143.1125  142.1923  167.4501 C.ar    1  UNL1       -0.0024
     10 C         143.4594  142.3893  168.8961 C.ar    1  UNL1       -0.0003
     11 C         142.3883  142.7519  169.8817 C.ar    1  UNL1        0.0038
     12 C         140.9704  142.9176  169.4213 C.ar    1  UNL1        0.0712
     13 C         140.6235  142.7205  167.9753 C.ar    1  UNL1        0.0015
     14 C         139.8994  143.2802  170.4069 C.3     1  UNL1        0.4186
     15 F         138.8283  143.6428  171.3925 F       1  UNL1       -0.1659
     16 F         140.2436  144.7313  170.2470 F       1  UNL1       -0.1659
     17 F         139.5552  141.8290  170.5668 F       1  UNL1       -0.1659
     18 O         139.8226  144.6537  164.8651 O.2     1  UNL1       -0.2732
     19 C         141.1174  144.3539  164.1698 C.2     1  UNL1        0.2430
     20 N         141.8799  143.1075  164.5091 N.am    1  UNL1       -0.2972
     21 H         142.7297  142.9107  164.0526 H       1  UNL1        0.1500
     22 C         141.6498  145.3004  163.1351 C.3     1  UNL1        0.1759
     23 N         141.6344  144.9135  161.6859 N.am    1  UNL1       -0.2931
     24 C         140.5199  145.3801  160.7969 C.2     1  UNL1        0.2462
     25 O         139.4209  146.2335  161.3570 O.2     1  UNL1       -0.2701
     26 H         142.3557  144.3534  161.3182 H       1  UNL1        0.1502
     27 C         140.5045  144.9932  159.3477 C.ar    1  UNL1        0.0535
     28 C         141.2816  145.7977  158.3483 C.ar    1  UNL1        0.0068
     29 C         141.2661  145.4108  156.8992 C.ar    1  UNL1        0.0298
     30 C         140.4735  144.2193  156.4494 C.ar    1  UNL1        0.1401
     31 F         140.4581  143.8324  155.0002 F       1  UNL1       -0.2042
     32 C         139.6964  143.4148  157.4488 C.ar    1  UNL1        0.0298
     33 C         139.7119  143.8017  158.8979 C.ar    1  UNL1        0.0068
@<TRIPOS>BOND
     1    18    19    2
     2    19    22    1
     3    22    23    1
     4    23    24   am
     5    24    25    2
     6    24    27    1
     7    27    28   ar
     8    28    29   ar
     9    29    30   ar
    10    30    31    1
    11    30    32   ar
    12    32    33   ar
    13    19    20   am
    14    20     1    1
    15     1     2    1
    16     2     3   ar
    17     3     4   ar
    18     4     5   ar
    19     5     6   ar
    20     6     7   ar
    21     1     8    1
    22     8     9   ar
    23     9    10   ar
    24    10    11   ar
    25    11    12   ar
    26    12    14    1
    27    14    15    1
    28    14    16    1
    29    14    17    1
    30    12    13   ar
    31    33    27   ar
    32     7     2   ar
    33    13     8   ar
    34    23    26    1
    35    20    21    1
@<TRIPOS>MOLECULE
*****
 33 35 0 0 0
SMALL
GASTEIGER

@<TRIPOS>ATOM
      1 C         141.9935  141.7825  165.3141 C.3     1  UNL1        0.1169
      2 C         140.7217  142.5154  165.0055 C.ar    1  UNL1       -0.0003
      3 C         140.7547  143.9878  164.7210 C.ar    1  UNL1       -0.0024
      4 C         139.4828  144.7207  164.4124 C.ar    1  UNL1       -0.0003
      5 C         138.1779  143.9813  164.3883 C.ar    1  UNL1       -0.0000
      6 C         138.1450  142.5088  164.6728 C.ar    1  UNL1       -0.0003
      7 C         139.4168  141.7759  164.9814 C.ar    1  UNL1       -0.0024
      8 C         142.2905  141.3552  166.7209 C.ar    1  UNL1       -0.0004
      9 C         142.2041  139.9061  167.0986 C.ar    1  UNL1       -0.0024
     10 C         142.5011  139.4787  168.5055 C.ar    1  UNL1       -0.0003
     11 C         142.8844  140.5006  169.5346 C.ar    1  UNL1        0.0038
     12 C         142.9708  141.9496  169.1568 C.ar    1  UNL1        0.0712
     13 C         142.6738  142.3769  167.7500 C.ar    1  UNL1        0.0015
     14 C         143.3541  142.9713  170.1859 C.3     1  UNL1        0.4186
     15 F         143.7374  143.9931  171.2151 F       1  UNL1       -0.1659
     16 F         141.9278  143.4294  170.2624 F       1  UNL1       -0.1659
     17 F         144.7803  142.5133  170.1095 F       1  UNL1       -0.1659
     18 O         144.4539  143.4664  164.9809 O.2     1  UNL1       -0.2732
     19 C         144.1986  142.3189  164.0492 C.2     1  UNL1        0.2430
     20 N         142.9685  141.4770  164.2158 N.am    1  UNL1       -0.2972
     21 H         142.8009  140.7238  163.6043 H       1  UNL1        0.1500
     22 C         145.1735  142.0133  162.9509 C.3     1  UNL1        0.1759
     23 N         144.6781  141.5165  161.6251 N.am    1  UNL1       -0.2931
     24 C         144.2470  140.0879  161.4729 C.2     1  UNL1        0.2462
     25 O         144.3113  139.1560  162.6465 O.2     1  UNL1       -0.2701
     26 H         144.6359  142.1281  160.8548 H       1  UNL1        0.1502
     27 C         143.7517  139.5911  160.1470 C.ar    1  UNL1        0.0535
     28 C         143.1574  138.2184  160.0348 C.ar    1  UNL1        0.0068
     29 C         142.6621  137.7217  158.7090 C.ar    1  UNL1        0.0298
     30 C         142.7610  138.5977  157.4953 C.ar    1  UNL1        0.1401
     31 F         142.2656  138.1009  156.1694 F       1  UNL1       -0.2042
     32 C         143.3552  139.9704  157.6075 C.ar    1  UNL1        0.0298
     33 C         143.8505  140.4671  158.9334 C.ar    1  UNL1        0.0068
@<TRIPOS>BOND
     1    18    19    2
     2    19    22    1
     3    22    23    1
     4    23    24   am
     5    24    25    2
     6    24    27    1
     7    27    28   ar
     8    28    29   ar
     9    29    30   ar
    10    30    31    1
    11    30    32   ar
    12    32    33   ar
    13    19    20   am
    14    20     1    1
    15     1     2    1
    16     2     3   ar
    17     3     4   ar
    18     4     5   ar
    19     5     6   ar
    20     6     7   ar
    21     1     8    1
    22     8     9   ar
    23     9    10   ar
    24    10    11   ar
    25    11    12   ar
    26    12    14    1
    27    14    15    1
    28    14    16    1
    29    14    17    1
    30    12    13   ar
    31    33    27   ar
    32     7     2   ar
    33    13     8   ar
    34    23    26    1
    35    20    21    1
@<TRIPOS>MOLECULE
*****
 33 35 0 0 0
SMALL
GASTEIGER

@<TRIPOS>ATOM
      1 C         140.2147  140.9468  166.0923 C.3     1  UNL1        0.1169
      2 C         139.4261  142.0086  165.3846 C.ar    1  UNL1       -0.0003
      3 C         138.3144  141.6225  164.4546 C.ar    1  UNL1       -0.0024
      4 C         137.5257  142.6843  163.7469 C.ar    1  UNL1       -0.0003
      5 C         137.8489  144.1321  163.9693 C.ar    1  UNL1       -0.0000
      6 C         138.9607  144.5181  164.8994 C.ar    1  UNL1       -0.0003
      7 C         139.7492  143.4564  165.6070 C.ar    1  UNL1       -0.0024
      8 C         140.4115  141.0232  167.5773 C.ar    1  UNL1       -0.0004
      9 C         139.4576  140.3207  168.4975 C.ar    1  UNL1       -0.0024
     10 C         139.6544  140.3971  169.9825 C.ar    1  UNL1       -0.0003
     11 C         140.8052  141.1760  170.5475 C.ar    1  UNL1        0.0038
     12 C         141.7591  141.8785  169.6274 C.ar    1  UNL1        0.0712
     13 C         141.5622  141.8021  168.1423 C.ar    1  UNL1        0.0015
     14 C         142.9098  142.6574  170.1923 C.3     1  UNL1        0.4186
     15 F         144.0605  143.4363  170.7573 F       1  UNL1       -0.1659
     16 F         143.7861  141.4454  170.0782 F       1  UNL1       -0.1659
     17 F         142.0334  143.8693  170.3064 F       1  UNL1       -0.1659
     18 O         138.6749  138.3930  165.7647 O.2     1  UNL1       -0.2732
     19 C         140.0366  138.5317  165.1511 C.2     1  UNL1        0.2430
     20 N         140.8065  139.8086  165.3149 N.am    1  UNL1       -0.2972
     21 H         141.7002  139.8996  164.9121 H       1  UNL1        0.1500
     22 C         140.6284  137.3936  164.3737 C.3     1  UNL1        0.1759
     23 N         140.5561  137.3910  162.8754 N.am    1  UNL1       -0.2931
     24 C         141.5089  138.2304  162.0771 C.2     1  UNL1        0.2462
     25 O         142.5341  139.0726  162.7770 O.2     1  UNL1       -0.2701
     26 H         139.8833  136.8382  162.4160 H       1  UNL1        0.1502
     27 C         141.4367  138.2278  160.5788 C.ar    1  UNL1        0.0535
     28 C         140.1422  138.5431  159.8898 C.ar    1  UNL1        0.0068
     29 C         140.0700  138.5404  158.3916 C.ar    1  UNL1        0.0298
     30 C         141.2923  138.2225  157.5823 C.ar    1  UNL1        0.1401
     31 F         141.2201  138.2198  156.0840 F       1  UNL1       -0.2042
     32 C         142.5868  137.9072  158.2713 C.ar    1  UNL1        0.0298
     33 C         142.6590  137.9099  159.7696 C.ar    1  UNL1        0.0068
@<TRIPOS>BOND
     1    18    19    2
     2    19    22    1
     3    22    23    1
     4    23    24   am
     5    24    25    2
     6    24    27    1
     7    27    28   ar
     8    28    29   ar
     9    29    30   ar
    10    30    31    1
    11    30    32   ar
    12    32    33   ar
    13    19    20   am
    14    20     1    1
    15     1     2    1
    16     2     3   ar
    17     3     4   ar
    18     4     5   ar
    19     5     6   ar
    20     6     7   ar
    21     1     8    1
    22     8     9   ar
    23     9    10   ar
    24    10    11   ar
    25    11    12   ar
    26    12    14    1
    27    14    15    1
    28    14    16    1
    29    14    17    1
    30    12    13   ar
    31    33    27   ar
    32     7     2   ar
    33    13     8   ar
    34    23    26    1
    35    20    21    1
@<TRIPOS>MOLECULE
*****
 33 35 0 0 0
SMALL
GASTEIGER

@<TRIPOS>ATOM
      1 C         141.9681  141.9726  165.8545 C.3     1  UNL1        0.1169
      2 C         141.8764  142.3601  167.3007 C.ar    1  UNL1       -0.0003
      3 C         140.5753  142.8484  167.8652 C.ar    1  UNL1       -0.0024
      4 C         140.4835  143.2359  169.3114 C.ar    1  UNL1       -0.0003
      5 C         141.6928  143.1352  170.1930 C.ar    1  UNL1       -0.0000
      6 C         142.9940  142.6469  169.6285 C.ar    1  UNL1       -0.0003
      7 C         143.0857  142.2594  168.1823 C.ar    1  UNL1       -0.0024
      8 C         141.8803  140.5286  165.4580 C.ar    1  UNL1       -0.0004
      9 C         142.9831  139.5811  165.8270 C.ar    1  UNL1       -0.0024
     10 C         142.8952  138.1371  165.4304 C.ar    1  UNL1       -0.0003
     11 C         141.7046  137.6407  164.6648 C.ar    1  UNL1        0.0038
     12 C         140.6019  138.5883  164.2958 C.ar    1  UNL1        0.0712
     13 C         140.6897  140.0322  164.6924 C.ar    1  UNL1        0.0015
     14 C         139.4113  138.0918  163.5303 C.3     1  UNL1        0.4186
     15 F         138.2207  137.5954  162.7647 F       1  UNL1       -0.1659
     16 F         140.2917  137.1360  162.7811 F       1  UNL1       -0.1659
     17 F         138.5310  139.0477  164.2795 F       1  UNL1       -0.1659
     18 O         144.7075  142.5848  164.7957 O.2     1  UNL1       -0.2732
     19 C         143.5174  143.3352  164.2755 C.2     1  UNL1        0.2430
     20 N         142.1477  143.0291  164.8049 N.am    1  UNL1       -0.2972
     21 H         141.3666  143.5215  164.4634 H       1  UNL1        0.1500
     22 C         143.6969  144.3916  163.2259 C.3     1  UNL1        0.1759
     23 N         143.0574  144.2270  161.8790 N.am    1  UNL1       -0.2931
     24 C         141.6231  144.6170  161.6771 C.2     1  UNL1        0.2462
     25 O         140.8284  145.1716  162.8220 O.2     1  UNL1       -0.2701
     26 H         143.5790  143.8631  161.1276 H       1  UNL1        0.1502
     27 C         140.9836  144.4525  160.3302 C.ar    1  UNL1        0.0535
     28 C         140.0588  143.2995  160.0749 C.ar    1  UNL1        0.0068
     29 C         139.4193  143.1350  158.7281 C.ar    1  UNL1        0.0298
     30 C         139.7047  144.1235  157.6366 C.ar    1  UNL1        0.1401
     31 F         139.0651  143.9589  156.2897 F       1  UNL1       -0.2042
     32 C         140.6295  145.2765  157.8919 C.ar    1  UNL1        0.0298
     33 C         141.2689  145.4410  159.2387 C.ar    1  UNL1        0.0068
@<TRIPOS>BOND
     1    18    19    2
     2    19    22    1
     3    22    23    1
     4    23    24   am
     5    24    25    2
     6    24    27    1
     7    27    28   ar
     8    28    29   ar
     9    29    30   ar
    10    30    31    1
    11    30    32   ar
    12    32    33   ar
    13    19    20   am
    14    20     1    1
    15     1     2    1
    16     2     3   ar
    17     3     4   ar
    18     4     5   ar
    19     5     6   ar
    20     6     7   ar
    21     1     8    1
    22     8     9   ar
    23     9    10   ar
    24    10    11   ar
    25    11    12   ar
    26    12    14    1
    27    14    15    1
    28    14    16    1
    29    14    17    1
    30    12    13   ar
    31    33    27   ar
    32     7     2   ar
    33    13     8   ar
    34    23    26    1
    35    20    21    1
@<TRIPOS>MOLECULE
*****
 33 35 0 0 0
SMALL
GASTEIGER

@<TRIPOS>ATOM
      1 C         140.3566  142.5459  166.2155 C.3     1  UNL1        0.1169
      2 C         141.0866  142.6708  167.5199 C.ar    1  UNL1       -0.0003
      3 C         142.5013  142.1863  167.6369 C.ar    1  UNL1       -0.0024
      4 C         143.2315  142.3112  168.9412 C.ar    1  UNL1       -0.0003
      5 C         142.5469  142.9207  170.1286 C.ar    1  UNL1       -0.0000
      6 C         141.1321  143.4053  170.0115 C.ar    1  UNL1       -0.0003
      7 C         140.4020  143.2803  168.7072 C.ar    1  UNL1       -0.0024
      8 C         139.6904  141.2526  165.8498 C.ar    1  UNL1       -0.0004
      9 C         139.4252  140.2207  166.9057 C.ar    1  UNL1       -0.0024
     10 C         138.7591  138.9274  166.5399 C.ar    1  UNL1       -0.0003
     11 C         138.3582  138.6661  165.1182 C.ar    1  UNL1        0.0038
     12 C         138.6235  139.6980  164.0624 C.ar    1  UNL1        0.0712
     13 C         139.2896  140.9913  164.4282 C.ar    1  UNL1        0.0015
     14 C         138.2226  139.4367  162.6408 C.3     1  UNL1        0.4186
     15 F         137.8217  139.1754  161.2191 F       1  UNL1       -0.1659
     16 F         138.2305  137.9611  162.9099 F       1  UNL1       -0.1659
     17 F         138.2147  140.9123  162.3718 F       1  UNL1       -0.1659
     18 O         142.6315  143.0865  164.3360 O.2     1  UNL1       -0.2732
     19 C         141.4300  143.9845  164.3372 C.2     1  UNL1        0.2430
     20 N         140.2925  143.7142  165.2769 N.am    1  UNL1       -0.2972
     21 H         139.5040  144.3036  165.2777 H       1  UNL1        0.1500
     22 C         141.3659  145.1528  163.3986 C.3     1  UNL1        0.1759
     23 N         141.7787  144.9875  161.9660 N.am    1  UNL1       -0.2931
     24 C         140.7725  145.1736  160.8693 C.2     1  UNL1        0.2462
     25 O         139.3534  145.5252  161.2051 O.2     1  UNL1       -0.2701
     26 H         142.7101  144.7567  161.7455 H       1  UNL1        0.1502
     27 C         141.1852  145.0083  159.4367 C.ar    1  UNL1        0.0535
     28 C         140.5342  145.8357  158.3683 C.ar    1  UNL1        0.0068
     29 C         140.9469  145.6704  156.9358 C.ar    1  UNL1        0.0298
     30 C         142.0108  144.6776  156.5716 C.ar    1  UNL1        0.1401
     31 F         142.4236  144.5123  155.1389 F       1  UNL1       -0.2042
     32 C         142.6619  143.8502  157.6399 C.ar    1  UNL1        0.0298
     33 C         142.2491  144.0156  159.0725 C.ar    1  UNL1        0.0068
@<TRIPOS>BOND
     1    18    19    2
     2    19    22    1
     3    22    23    1
     4    23    24   am
     5    24    25    2
     6    24    27    1
     7    27    28   ar
     8    28    29   ar
     9    29    30   ar
    10    30    31    1
    11    30    32   ar
    12    32    33   ar
    13    19    20   am
    14    20     1    1
    15     1     2    1
    16     2     3   ar
    17     3     4   ar
    18     4     5   ar
    19     5     6   ar
    20     6     7   ar
    21     1     8    1
    22     8     9   ar
    23     9    10   ar
    24    10    11   ar
    25    11    12   ar
    26    12    14    1
    27    14    15    1
    28    14    16    1
    29    14    17    1
    30    12    13   ar
    31    33    27   ar
    32     7     2   ar
    33    13     8   ar
    34    23    26    1
    35    20    21    1
