@<TRIPOS>MOLECULE
*****
 31 35 0 0 0
SMALL
GASTEIGER

@<TRIPOS>ATOM
      1 C         142.7268  144.9645  163.3347 C.3     1  UNL1        0.0731
      2 N         138.8668  141.2419  162.9903 N.pl3   1  UNL1       -0.3077
      3 C         137.7689  141.6237  162.0423 C.3     1  UNL1        0.0909
      4 C         138.1003  142.9687  161.4669 C.3     1  UNL1        0.0245
      5 C         139.4031  143.4181  162.0592 C.3     1  UNL1        0.0372
      6 C         140.4131  144.5271  162.0697 C.3     1  UNL1        0.0738
      7 N         141.5109  144.1452  163.0177 N.3     1  UNL1       -0.2712
      8 C         141.1795  142.8003  163.5932 C.3     1  UNL1        0.0921
      9 C         139.8768  142.3508  163.0008 C.3     1  UNL1        0.0901
     10 C         137.5434  138.4818  167.1892 C.3     1  UNL1        0.0311
     11 C         138.2800  138.5936  165.8873 C.ar    1  UNL1       -0.0206
     12 C         139.0914  137.4372  165.3830 C.ar    1  UNL1       -0.0042
     13 C         139.8279  137.5490  164.0811 C.ar    1  UNL1        0.0009
     14 C         139.7530  138.8173  163.2836 C.ar    1  UNL1        0.0145
     15 C         138.9416  139.9737  163.7879 C.ar    1  UNL1        0.0475
     16 C         138.2051  139.8619  165.0898 C.ar    1  UNL1        0.0103
     17 C         144.0886  144.4637  162.9544 C.3     1  UNL1        0.0294
     18 C         144.2610  143.0552  162.4683 C.3     1  UNL1        0.0666
     19 S         145.0157  142.0616  163.3009 S.3     1  UNL1       -0.0756
     20 C         144.2715  141.1016  164.1810 C.ar    1  UNL1        0.1933
     21 N         143.9910  139.6603  163.8743 N.ar    1  UNL1       -0.1221
     22 N         143.2233  139.0822  165.0261 N.ar    1  UNL1       -0.1266
     23 C         143.0293  140.1663  166.0445 C.ar    1  UNL1        0.1862
     24 N         143.6772  141.4143  165.5222 N.ar    1  UNL1       -0.2872
     25 C         143.7227  142.7419  166.2189 C.3     1  UNL1        0.1340
     26 C         142.3133  140.0268  167.3552 C.ar    1  UNL1        0.1362
     27 C         140.9197  140.5599  167.5089 C.ar    1  UNL1        0.1211
     28 N         140.2037  140.4204  168.8196 N.ar    1  UNL1       -0.2390
     29 C         140.8813  139.7479  169.9765 C.ar    1  UNL1        0.1195
     30 C         142.2749  139.2148  169.8228 C.ar    1  UNL1        0.1196
     31 N         142.9910  139.3542  168.5122 N.ar    1  UNL1       -0.2375
@<TRIPOS>BOND
     1    10    11    1
     2    11    12   ar
     3    12    13   ar
     4    13    14   ar
     5    14    15   ar
     6    15     2    1
     7     2     3    1
     8     3     4    1
     9     4     5    1
    10     5     6    1
    11     6     7    1
    12     7     1    1
    13     1    17    1
    14    17    18    1
    15    18    19    1
    16    19    20    1
    17    20    21   ar
    18    21    22   ar
    19    22    23   ar
    20    23    26    1
    21    26    27   ar
    22    27    28   ar
    23    28    29   ar
    24    29    30   ar
    25    30    31   ar
    26    23    24   ar
    27    24    25    1
    28     7     8    1
    29     8     9    1
    30    15    16   ar
    31    16    11   ar
    32     9     2    1
    33     9     5    1
    34    24    20   ar
    35    31    26   ar
@<TRIPOS>MOLECULE
*****
 31 35 0 0 0
SMALL
GASTEIGER

@<TRIPOS>ATOM
      1 C         142.7449  137.6353  161.7556 C.3     1  UNL1        0.0731
      2 N         139.1481  140.4373  164.5993 N.pl3   1  UNL1       -0.3077
      3 C         138.2659  139.5679  165.4454 C.3     1  UNL1        0.0909
      4 C         138.6750  138.1413  165.2277 C.3     1  UNL1        0.0245
      5 C         139.8100  138.1290  164.2471 C.3     1  UNL1        0.0372
      6 C         140.7644  137.2398  163.5065 C.3     1  UNL1        0.0738
      7 N         141.6465  138.1092  162.6605 N.3     1  UNL1       -0.2712
      8 C         141.2374  139.5358  162.8781 C.3     1  UNL1        0.0921
      9 C         140.1024  139.5481  163.8587 C.3     1  UNL1        0.0901
     10 C         141.5394  145.0113  163.9993 C.3     1  UNL1        0.0311
     11 C         140.2823  144.2204  164.2096 C.ar    1  UNL1       -0.0206
     12 C         138.9639  144.9255  164.3301 C.ar    1  UNL1       -0.0042
     13 C         137.7069  144.1346  164.5404 C.ar    1  UNL1        0.0009
     14 C         137.7683  142.6385  164.6301 C.ar    1  UNL1        0.0145
     15 C         139.0867  141.9334  164.5096 C.ar    1  UNL1        0.0475
     16 C         140.3438  142.7243  164.2993 C.ar    1  UNL1        0.0103
     17 C         144.0766  138.3255  161.7673 C.3     1  UNL1        0.0294
     18 C         144.1923  139.7231  162.2995 C.3     1  UNL1        0.0666
     19 S         144.8931  139.9742  163.6018 S.3     1  UNL1       -0.0756
     20 C         144.1533  140.6101  164.7412 C.ar    1  UNL1        0.1933
     21 N         144.0660  142.0805  165.0246 N.ar    1  UNL1       -0.1221
     22 N         143.2296  142.2665  166.2558 N.ar    1  UNL1       -0.1266
     23 C         142.7999  140.9110  166.7333 C.ar    1  UNL1        0.1862
     24 N         143.3708  139.8873  165.7973 N.ar    1  UNL1       -0.2872
     25 C         143.1907  138.4017  165.8993 C.3     1  UNL1        0.1340
     26 C         141.9488  140.6287  167.9358 C.ar    1  UNL1        0.1362
     27 C         142.5424  139.9433  169.1306 C.ar    1  UNL1        0.1211
     28 N         141.6912  139.6610  170.3331 N.ar    1  UNL1       -0.2390
     29 C         140.2464  140.0642  170.3406 C.ar    1  UNL1        0.1195
     30 C         139.6528  140.7497  169.1458 C.ar    1  UNL1        0.1196
     31 N         140.5039  141.0320  167.9433 N.ar    1  UNL1       -0.2375
@<TRIPOS>BOND
     1    10    11    1
     2    11    12   ar
     3    12    13   ar
     4    13    14   ar
     5    14    15   ar
     6    15     2    1
     7     2     3    1
     8     3     4    1
     9     4     5    1
    10     5     6    1
    11     6     7    1
    12     7     1    1
    13     1    17    1
    14    17    18    1
    15    18    19    1
    16    19    20    1
    17    20    21   ar
    18    21    22   ar
    19    22    23   ar
    20    23    26    1
    21    26    27   ar
    22    27    28   ar
    23    28    29   ar
    24    29    30   ar
    25    30    31   ar
    26    23    24   ar
    27    24    25    1
    28     7     8    1
    29     8     9    1
    30    15    16   ar
    31    16    11   ar
    32     9     2    1
    33     9     5    1
    34    24    20   ar
    35    31    26   ar
@<TRIPOS>MOLECULE
*****
 31 35 0 0 0
SMALL
GASTEIGER

@<TRIPOS>ATOM
      1 C         138.6045  138.2881  162.2268 C.3     1  UNL1        0.0731
      2 N         141.4705  139.6456  166.5648 N.pl3   1  UNL1       -0.3077
      3 C         142.9144  139.2535  166.4581 C.3     1  UNL1        0.0909
      4 C         143.1158  138.5831  165.1314 C.3     1  UNL1        0.0245
      5 C         141.7963  138.5608  164.4183 C.3     1  UNL1        0.0372
      6 C         141.1053  138.1328  163.1576 C.3     1  UNL1        0.0738
      7 N         139.6614  138.5249  163.2645 N.3     1  UNL1       -0.2712
      8 C         139.4600  139.1953  164.5910 C.3     1  UNL1        0.0921
      9 C         140.7795  139.2175  165.3042 C.3     1  UNL1        0.0901
     10 C         141.3548  143.6024  169.9308 C.3     1  UNL1        0.0311
     11 C         140.7721  142.3217  169.4110 C.ar    1  UNL1       -0.0206
     12 C         139.5490  141.7386  170.0545 C.ar    1  UNL1       -0.0042
     13 C         138.9664  140.4578  169.5347 C.ar    1  UNL1        0.0009
     14 C         139.6070  139.7602  168.3715 C.ar    1  UNL1        0.0145
     15 C         140.8301  140.3433  167.7280 C.ar    1  UNL1        0.0475
     16 C         141.4127  141.6240  168.2478 C.ar    1  UNL1        0.0103
     17 C         137.7539  139.4275  161.7490 C.3     1  UNL1        0.0294
     18 C         137.7517  139.8045  160.2972 C.3     1  UNL1        0.0666
     19 S         138.2734  141.1443  159.8694 S.3     1  UNL1       -0.0756
     20 C         138.8586  142.0803  160.8849 C.ar    1  UNL1        0.1933
     21 N         138.1505  143.2330  161.5328 N.ar    1  UNL1       -0.1221
     22 N         139.1090  143.8932  162.4792 N.ar    1  UNL1       -0.1266
     23 C         140.4096  143.1484  162.4161 C.ar    1  UNL1        0.1862
     24 N         140.2548  142.0281  161.4308 N.ar    1  UNL1       -0.2872
     25 C         141.3108  141.0305  161.0570 C.3     1  UNL1        0.1340
     26 C         141.6475  143.4680  163.2005 C.ar    1  UNL1        0.1362
     27 C         141.9702  142.6905  164.4420 C.ar    1  UNL1        0.1211
     28 N         143.2082  143.0100  165.2264 N.ar    1  UNL1       -0.2390
     29 C         144.1234  144.1071  164.7694 C.ar    1  UNL1        0.1195
     30 C         143.8007  144.8846  163.5279 C.ar    1  UNL1        0.1196
     31 N         142.5627  144.5651  162.7434 N.ar    1  UNL1       -0.2375
@<TRIPOS>BOND
     1    10    11    1
     2    11    12   ar
     3    12    13   ar
     4    13    14   ar
     5    14    15   ar
     6    15     2    1
     7     2     3    1
     8     3     4    1
     9     4     5    1
    10     5     6    1
    11     6     7    1
    12     7     1    1
    13     1    17    1
    14    17    18    1
    15    18    19    1
    16    19    20    1
    17    20    21   ar
    18    21    22   ar
    19    22    23   ar
    20    23    26    1
    21    26    27   ar
    22    27    28   ar
    23    28    29   ar
    24    29    30   ar
    25    30    31   ar
    26    23    24   ar
    27    24    25    1
    28     7     8    1
    29     8     9    1
    30    15    16   ar
    31    16    11   ar
    32     9     2    1
    33     9     5    1
    34    24    20   ar
    35    31    26   ar
@<TRIPOS>MOLECULE
*****
 31 35 0 0 0
SMALL
GASTEIGER

@<TRIPOS>ATOM
      1 C         137.6499  139.2601  161.7997 C.3     1  UNL1        0.0731
      2 N         140.0723  143.7617  163.4560 N.pl3   1  UNL1       -0.3077
      3 C         139.1414  144.6996  164.1658 C.3     1  UNL1        0.0909
      4 C         137.7806  144.0693  164.1935 C.3     1  UNL1        0.0245
      5 C         137.8704  142.7418  163.5008 C.3     1  UNL1        0.0372
      6 C         137.0848  141.5319  163.0897 C.3     1  UNL1        0.0738
      7 N         138.0157  140.5941  162.3799 N.3     1  UNL1       -0.2712
      8 C         139.3765  141.2243  162.3522 C.3     1  UNL1        0.0921
      9 C         139.2867  142.5517  163.0450 C.3     1  UNL1        0.0901
     10 C         144.4255  142.6142  160.8612 C.3     1  UNL1        0.0311
     11 C         143.7090  143.4194  161.9044 C.ar    1  UNL1       -0.0206
     12 C         144.4526  144.4559  162.6935 C.ar    1  UNL1       -0.0042
     13 C         143.7361  145.2611  163.7367 C.ar    1  UNL1        0.0009
     14 C         142.2760  145.0296  163.9908 C.ar    1  UNL1        0.0145
     15 C         141.5324  143.9931  163.2018 C.ar    1  UNL1        0.0475
     16 C         142.2489  143.1879  162.1586 C.ar    1  UNL1        0.0103
     17 C         138.6019  138.1065  161.9128 C.3     1  UNL1        0.0294
     18 C         138.8629  137.4777  163.2494 C.3     1  UNL1        0.0666
     19 S         140.0879  137.8541  164.0289 S.3     1  UNL1       -0.0756
     20 C         139.9551  138.6266  165.3079 C.ar    1  UNL1        0.1933
     21 N         138.7144  138.7430  166.1427 N.ar    1  UNL1       -0.1221
     22 N         139.0321  139.6066  167.3273 N.ar    1  UNL1       -0.1266
     23 C         140.4692  140.0239  167.2246 C.ar    1  UNL1        0.1862
     24 N         141.0396  139.4182  165.9765 N.ar    1  UNL1       -0.2872
     25 C         142.4475  139.5764  165.4836 C.3     1  UNL1        0.1340
     26 C         141.2065  140.8940  168.1989 C.ar    1  UNL1        0.1362
     27 C         140.6960  142.2693  168.5115 C.ar    1  UNL1        0.1211
     28 N         141.4333  143.1395  169.4859 N.ar    1  UNL1       -0.2390
     29 C         142.6811  142.6343  170.1475 C.ar    1  UNL1        0.1195
     30 C         143.1916  141.2589  169.8348 C.ar    1  UNL1        0.1196
     31 N         142.4544  140.3888  168.8605 N.ar    1  UNL1       -0.2375
@<TRIPOS>BOND
     1    10    11    1
     2    11    12   ar
     3    12    13   ar
     4    13    14   ar
     5    14    15   ar
     6    15     2    1
     7     2     3    1
     8     3     4    1
     9     4     5    1
    10     5     6    1
    11     6     7    1
    12     7     1    1
    13     1    17    1
    14    17    18    1
    15    18    19    1
    16    19    20    1
    17    20    21   ar
    18    21    22   ar
    19    22    23   ar
    20    23    26    1
    21    26    27   ar
    22    27    28   ar
    23    28    29   ar
    24    29    30   ar
    25    30    31   ar
    26    23    24   ar
    27    24    25    1
    28     7     8    1
    29     8     9    1
    30    15    16   ar
    31    16    11   ar
    32     9     2    1
    33     9     5    1
    34    24    20   ar
    35    31    26   ar
@<TRIPOS>MOLECULE
*****
 31 35 0 0 0
SMALL
GASTEIGER

@<TRIPOS>ATOM
      1 C         140.3951  145.5434  159.9688 C.3     1  UNL1        0.0731
      2 N         140.9583  142.9222  164.6258 N.pl3   1  UNL1       -0.3077
      3 C         140.0218  143.4126  165.6900 C.3     1  UNL1        0.0909
      4 C         139.1930  144.5174  165.1047 C.3     1  UNL1        0.0245
      5 C         139.6172  144.7097  163.6788 C.3     1  UNL1        0.0372
      6 C         139.3671  145.5113  162.4359 C.3     1  UNL1        0.0738
      7 N         140.3035  145.0209  161.3718 N.3     1  UNL1       -0.2712
      8 C         141.1324  143.9162  161.9570 C.3     1  UNL1        0.0921
      9 C         140.7082  143.7238  163.3828 C.3     1  UNL1        0.0901
     10 C         145.7762  141.1079  163.9213 C.3     1  UNL1        0.0311
     11 C         144.3766  140.9159  164.4256 C.ar    1  UNL1       -0.0206
     12 C         143.9864  139.6248  165.0819 C.ar    1  UNL1       -0.0042
     13 C         142.5869  139.4328  165.5863 C.ar    1  UNL1        0.0009
     14 C         141.5775  140.5320  165.4342 C.ar    1  UNL1        0.0145
     15 C         141.9677  141.8231  164.7778 C.ar    1  UNL1        0.0475
     16 C         143.3673  142.0151  164.2735 C.ar    1  UNL1        0.0103
     17 C         140.6696  144.6016  158.8341 C.3     1  UNL1        0.0294
     18 C         139.5595  143.7677  158.2663 C.3     1  UNL1        0.0666
     19 S         139.3928  142.3426  158.7039 S.3     1  UNL1       -0.0756
     20 C         138.8214  142.0353  160.0563 C.ar    1  UNL1        0.1933
     21 N         137.7653  142.8277  160.7680 N.ar    1  UNL1       -0.1221
     22 N         137.4969  142.1638  162.0861 N.ar    1  UNL1       -0.1266
     23 C         138.3873  140.9610  162.1889 C.ar    1  UNL1        0.1862
     24 N         139.2058  140.8816  160.9345 N.ar    1  UNL1       -0.2872
     25 C         140.2291  139.8326  160.6144 C.3     1  UNL1        0.1340
     26 C         138.4483  140.0054  163.3435 C.ar    1  UNL1        0.1362
     27 C         138.8659  138.5825  163.1181 C.ar    1  UNL1        0.1211
     28 N         138.9270  137.6269  164.2728 N.ar    1  UNL1       -0.2390
     29 C         138.5705  138.0942  165.6528 C.ar    1  UNL1        0.1195
     30 C         138.1529  139.5172  165.8782 C.ar    1  UNL1        0.1196
     31 N         138.0918  140.4728  164.7236 N.ar    1  UNL1       -0.2375
@<TRIPOS>BOND
     1    10    11    1
     2    11    12   ar
     3    12    13   ar
     4    13    14   ar
     5    14    15   ar
     6    15     2    1
     7     2     3    1
     8     3     4    1
     9     4     5    1
    10     5     6    1
    11     6     7    1
    12     7     1    1
    13     1    17    1
    14    17    18    1
    15    18    19    1
    16    19    20    1
    17    20    21   ar
    18    21    22   ar
    19    22    23   ar
    20    23    26    1
    21    26    27   ar
    22    27    28   ar
    23    28    29   ar
    24    29    30   ar
    25    30    31   ar
    26    23    24   ar
    27    24    25    1
    28     7     8    1
    29     8     9    1
    30    15    16   ar
    31    16    11   ar
    32     9     2    1
    33     9     5    1
    34    24    20   ar
    35    31    26   ar
@<TRIPOS>MOLECULE
*****
 31 35 0 0 0
SMALL
GASTEIGER

@<TRIPOS>ATOM
      1 C         144.0839  139.0505  160.9602 C.3     1  UNL1        0.0731
      2 N         142.8005  141.5086  165.5631 N.pl3   1  UNL1       -0.3077
      3 C         143.6394  142.7228  165.8314 C.3     1  UNL1        0.0909
      4 C         144.6064  142.8783  164.6953 C.3     1  UNL1        0.0245
      5 C         144.3652  141.7602  163.7249 C.3     1  UNL1        0.0372
      6 C         144.8138  141.1652  162.4230 C.3     1  UNL1        0.0738
      7 N         143.9749  139.9511  162.1548 N.3     1  UNL1       -0.2712
      8 C         143.0078  139.7956  163.2908 C.3     1  UNL1        0.0921
      9 C         143.2491  140.9137  164.2612 C.3     1  UNL1        0.0901
     10 C         138.1691  139.2140  166.0965 C.3     1  UNL1        0.0311
     11 C         139.3896  139.8345  166.7090 C.ar    1  UNL1       -0.0206
     12 C         139.5149  139.9282  168.2008 C.ar    1  UNL1       -0.0042
     13 C         140.7354  140.5488  168.8134 C.ar    1  UNL1        0.0009
     14 C         141.8306  141.0755  167.9341 C.ar    1  UNL1        0.0145
     15 C         141.7053  140.9818  166.4423 C.ar    1  UNL1        0.0475
     16 C         140.4848  140.3613  165.8297 C.ar    1  UNL1        0.0103
     17 C         143.2335  139.3028  159.7507 C.3     1  UNL1        0.0294
     18 C         143.6938  140.2673  158.6981 C.3     1  UNL1        0.0666
     19 S         142.9062  141.5151  158.4282 S.3     1  UNL1       -0.0756
     20 C         142.5201  142.4182  159.5619 C.ar    1  UNL1        0.1933
     21 N         143.3160  143.5830  160.0716 N.ar    1  UNL1       -0.1221
     22 N         142.5581  144.1998  161.2096 N.ar    1  UNL1       -0.1266
     23 C         141.2938  143.4163  161.4033 C.ar    1  UNL1        0.1862
     24 N         141.2703  142.3152  160.3849 N.ar    1  UNL1       -0.2872
     25 C         140.1872  141.2909  160.2188 C.3     1  UNL1        0.1340
     26 C         140.2382  143.6863  162.4342 C.ar    1  UNL1        0.1362
     27 C         140.5815  143.6246  163.8930 C.ar    1  UNL1        0.1211
     28 N         139.5259  143.8947  164.9240 N.ar    1  UNL1       -0.2390
     29 C         138.1271  144.2265  164.4961 C.ar    1  UNL1        0.1195
     30 C         137.7838  144.2882  163.0372 C.ar    1  UNL1        0.1196
     31 N         138.8393  144.0182  162.0062 N.ar    1  UNL1       -0.2375
@<TRIPOS>BOND
     1    10    11    1
     2    11    12   ar
     3    12    13   ar
     4    13    14   ar
     5    14    15   ar
     6    15     2    1
     7     2     3    1
     8     3     4    1
     9     4     5    1
    10     5     6    1
    11     6     7    1
    12     7     1    1
    13     1    17    1
    14    17    18    1
    15    18    19    1
    16    19    20    1
    17    20    21   ar
    18    21    22   ar
    19    22    23   ar
    20    23    26    1
    21    26    27   ar
    22    27    28   ar
    23    28    29   ar
    24    29    30   ar
    25    30    31   ar
    26    23    24   ar
    27    24    25    1
    28     7     8    1
    29     8     9    1
    30    15    16   ar
    31    16    11   ar
    32     9     2    1
    33     9     5    1
    34    24    20   ar
    35    31    26   ar
@<TRIPOS>MOLECULE
*****
 31 35 0 0 0
SMALL
GASTEIGER

@<TRIPOS>ATOM
      1 C         144.1421  138.7839  161.0978 C.3     1  UNL1        0.0731
      2 N         141.9963  140.9455  165.5248 N.pl3   1  UNL1       -0.3077
      3 C         142.7574  142.1390  166.0209 C.3     1  UNL1        0.0909
      4 C         143.9178  142.3653  165.0977 C.3     1  UNL1        0.0245
      5 C         143.8738  141.3116  164.0310 C.3     1  UNL1        0.0372
      6 C         144.5637  140.8002  162.8012 C.3     1  UNL1        0.0738
      7 N         143.8025  139.6067  162.3051 N.3     1  UNL1       -0.2712
      8 C         142.6422  139.3804  163.2283 C.3     1  UNL1        0.0921
      9 C         142.6862  140.4341  164.2950 C.3     1  UNL1        0.0901
     10 C         138.9804  140.2104  169.6918 C.3     1  UNL1        0.0311
     11 C         139.2539  139.9977  168.2324 C.ar    1  UNL1       -0.0206
     12 C         138.2930  139.2046  167.3971 C.ar    1  UNL1       -0.0042
     13 C         138.5666  138.9918  165.9377 C.ar    1  UNL1        0.0009
     14 C         139.8010  139.5721  165.3136 C.ar    1  UNL1        0.0145
     15 C         140.7619  140.3652  166.1489 C.ar    1  UNL1        0.0475
     16 C         140.4884  140.5780  167.6083 C.ar    1  UNL1        0.0103
     17 C         143.1760  137.7511  160.5981 C.3     1  UNL1        0.0294
     18 C         142.7085  137.7885  159.1733 C.3     1  UNL1        0.0666
     19 S         141.3983  138.4336  158.8305 S.3     1  UNL1       -0.0756
     20 C         140.6023  139.1270  159.8961 C.ar    1  UNL1        0.1933
     21 N         139.5758  138.4898  160.7851 N.ar    1  UNL1       -0.1221
     22 N         139.0321  139.5484  161.6982 N.ar    1  UNL1       -0.1266
     23 C         139.7224  140.8399  161.3735 C.ar    1  UNL1        0.1862
     24 N         140.6928  140.5794  160.2597 N.ar    1  UNL1       -0.2872
     25 C         141.5954  141.5934  159.6216 C.3     1  UNL1        0.1340
     26 C         139.4842  142.1600  162.0447 C.ar    1  UNL1        0.1362
     27 C         138.1562  142.8432  161.9056 C.ar    1  UNL1        0.1211
     28 N         137.9180  144.1634  162.5769 N.ar    1  UNL1       -0.2390
     29 C         139.0079  144.8003  163.3871 C.ar    1  UNL1        0.1195
     30 C         140.3360  144.1170  163.5261 C.ar    1  UNL1        0.1196
     31 N         140.5742  142.7969  162.8549 N.ar    1  UNL1       -0.2375
@<TRIPOS>BOND
     1    10    11    1
     2    11    12   ar
     3    12    13   ar
     4    13    14   ar
     5    14    15   ar
     6    15     2    1
     7     2     3    1
     8     3     4    1
     9     4     5    1
    10     5     6    1
    11     6     7    1
    12     7     1    1
    13     1    17    1
    14    17    18    1
    15    18    19    1
    16    19    20    1
    17    20    21   ar
    18    21    22   ar
    19    22    23   ar
    20    23    26    1
    21    26    27   ar
    22    27    28   ar
    23    28    29   ar
    24    29    30   ar
    25    30    31   ar
    26    23    24   ar
    27    24    25    1
    28     7     8    1
    29     8     9    1
    30    15    16   ar
    31    16    11   ar
    32     9     2    1
    33     9     5    1
    34    24    20   ar
    35    31    26   ar
@<TRIPOS>MOLECULE
*****
 31 35 0 0 0
SMALL
GASTEIGER

@<TRIPOS>ATOM
      1 C         143.7365  144.4179  164.0159 C.3     1  UNL1        0.0731
      2 N         138.8969  142.3578  162.9158 N.pl3   1  UNL1       -0.3077
      3 C         137.8347  143.4065  162.7682 C.3     1  UNL1        0.0909
      4 C         138.4740  144.7468  162.9802 C.3     1  UNL1        0.0245
      5 C         139.9313  144.5265  163.2590 C.3     1  UNL1        0.0372
      6 C         141.2270  145.2186  163.5623 C.3     1  UNL1        0.0738
      7 N         142.2892  144.1698  163.7099 N.3     1  UNL1       -0.2712
      8 C         141.6500  142.8296  163.4979 C.3     1  UNL1        0.0921
      9 C         140.1927  143.0499  163.2192 C.3     1  UNL1        0.0901
     10 C         139.0444  137.5947  164.9872 C.3     1  UNL1        0.0311
     11 C         138.7721  138.4954  163.8190 C.ar    1  UNL1       -0.0206
     12 C         138.3011  137.9151  162.5185 C.ar    1  UNL1       -0.0042
     13 C         138.0288  138.8158  161.3503 C.ar    1  UNL1        0.0009
     14 C         138.2274  140.2967  161.4828 C.ar    1  UNL1        0.0145
     15 C         138.6983  140.8769  162.7834 C.ar    1  UNL1        0.0475
     16 C         138.9707  139.9763  163.9516 C.ar    1  UNL1        0.0103
     17 C         144.4610  143.5309  164.9846 C.3     1  UNL1        0.0294
     18 C         144.7179  142.0942  164.6383 C.3     1  UNL1        0.0666
     19 S         145.5514  141.7491  163.4398 S.3     1  UNL1       -0.0756
     20 C         144.9061  141.6068  162.0932 C.ar    1  UNL1        0.1933
     21 N         144.8783  142.6485  161.0143 N.ar    1  UNL1       -0.1221
     22 N         144.1303  142.0834  159.8434 N.ar    1  UNL1       -0.1266
     23 C         143.6957  140.6924  160.1987 C.ar    1  UNL1        0.1862
     24 N         144.1751  140.3979  161.5891 N.ar    1  UNL1       -0.2872
     25 C         143.9612  139.1189  162.3431 C.3     1  UNL1        0.1340
     26 C         142.9181  139.7596  159.3181 C.ar    1  UNL1        0.1362
     27 C         141.4497  139.5593  159.5494 C.ar    1  UNL1        0.1211
     28 N         140.6722  138.6265  158.6687 N.ar    1  UNL1       -0.2390
     29 C         141.3631  137.8941  157.5569 C.ar    1  UNL1        0.1195
     30 C         142.8316  138.0945  157.3256 C.ar    1  UNL1        0.1196
     31 N         143.6091  139.0273  158.2061 N.ar    1  UNL1       -0.2375
@<TRIPOS>BOND
     1    10    11    1
     2    11    12   ar
     3    12    13   ar
     4    13    14   ar
     5    14    15   ar
     6    15     2    1
     7     2     3    1
     8     3     4    1
     9     4     5    1
    10     5     6    1
    11     6     7    1
    12     7     1    1
    13     1    17    1
    14    17    18    1
    15    18    19    1
    16    19    20    1
    17    20    21   ar
    18    21    22   ar
    19    22    23   ar
    20    23    26    1
    21    26    27   ar
    22    27    28   ar
    23    28    29   ar
    24    29    30   ar
    25    30    31   ar
    26    23    24   ar
    27    24    25    1
    28     7     8    1
    29     8     9    1
    30    15    16   ar
    31    16    11   ar
    32     9     2    1
    33     9     5    1
    34    24    20   ar
    35    31    26   ar
@<TRIPOS>MOLECULE
*****
 31 35 0 0 0
SMALL
GASTEIGER

@<TRIPOS>ATOM
      1 C         142.8220  137.9628  162.4064 C.3     1  UNL1        0.0731
      2 N         140.3034  139.8284  166.7712 N.pl3   1  UNL1       -0.3077
      3 C         138.8745  139.3805  166.8582 C.3     1  UNL1        0.0909
      4 C         138.5837  138.5238  165.6617 C.3     1  UNL1        0.0245
      5 C         139.8328  138.4423  164.8353 C.3     1  UNL1        0.0372
      6 C         140.4251  137.8624  163.5851 C.3     1  UNL1        0.0738
      7 N         141.8539  138.3104  163.4981 N.3     1  UNL1       -0.2712
      8 C         142.1448  139.1671  164.6945 C.3     1  UNL1        0.0921
      9 C         140.8957  139.2486  165.5210 C.3     1  UNL1        0.0901
     10 C         140.3717  144.0223  169.8382 C.3     1  UNL1        0.0311
     11 C         141.0493  142.7997  169.2942 C.ar    1  UNL1       -0.0206
     12 C         142.4386  142.4513  169.7396 C.ar    1  UNL1       -0.0042
     13 C         143.1161  141.2287  169.1957 C.ar    1  UNL1        0.0009
     14 C         142.4044  140.3544  168.2062 C.ar    1  UNL1        0.0145
     15 C         141.0151  140.7027  167.7607 C.ar    1  UNL1        0.0475
     16 C         140.3375  141.9254  168.3047 C.ar    1  UNL1        0.0103
     17 C         142.3920  138.0360  160.9713 C.3     1  UNL1        0.0294
     18 C         143.2713  138.7070  159.9581 C.3     1  UNL1        0.0666
     19 S         143.3234  140.2044  159.8846 S.3     1  UNL1       -0.0756
     20 C         142.8861  141.0286  161.0591 C.ar    1  UNL1        0.1933
     21 N         143.7813  141.5943  162.1214 N.ar    1  UNL1       -0.1221
     22 N         142.9253  142.3472  163.0964 N.ar    1  UNL1       -0.1266
     23 C         141.5011  142.2467  162.6366 C.ar    1  UNL1        0.1862
     24 N         141.4769  141.4317  161.3775 N.ar    1  UNL1       -0.2872
     25 C         140.2574  141.0815  160.5773 C.3     1  UNL1        0.1340
     26 C         140.3101  142.8544  163.3165 C.ar    1  UNL1        0.1362
     27 C         140.1652  144.3458  163.3843 C.ar    1  UNL1        0.1211
     28 N         138.9742  144.9535  164.0642 N.ar    1  UNL1       -0.2390
     29 C         137.9281  144.0697  164.6764 C.ar    1  UNL1        0.1195
     30 C         138.0730  142.5782  164.6086 C.ar    1  UNL1        0.1196
     31 N         139.2640  141.9705  163.9287 N.ar    1  UNL1       -0.2375
@<TRIPOS>BOND
     1    10    11    1
     2    11    12   ar
     3    12    13   ar
     4    13    14   ar
     5    14    15   ar
     6    15     2    1
     7     2     3    1
     8     3     4    1
     9     4     5    1
    10     5     6    1
    11     6     7    1
    12     7     1    1
    13     1    17    1
    14    17    18    1
    15    18    19    1
    16    19    20    1
    17    20    21   ar
    18    21    22   ar
    19    22    23   ar
    20    23    26    1
    21    26    27   ar
    22    27    28   ar
    23    28    29   ar
    24    29    30   ar
    25    30    31   ar
    26    23    24   ar
    27    24    25    1
    28     7     8    1
    29     8     9    1
    30    15    16   ar
    31    16    11   ar
    32     9     2    1
    33     9     5    1
    34    24    20   ar
    35    31    26   ar
