@<TRIPOS>MOLECULE
*****
 26 29 0 0 0
SMALL
GASTEIGER

@<TRIPOS>ATOM
      1 C         143.2132  140.7101  163.6157 C.3     1  UNL1        0.0236
      2 C         142.1102  141.7131  163.7824 C.3     1  UNL1        0.0987
      3 C         141.5839  142.4542  162.5892 C.3     1  UNL1        0.1285
      4 N         140.4810  143.4571  162.7559 N.ar    1  UNL1       -0.2944
      5 C         139.9045  143.7189  164.1157 C.ar    1  UNL1        0.1636
      6 N         138.8317  144.7574  163.9722 N.ar    1  UNL1       -0.1315
      7 N         138.7452  145.1375  162.5238 N.ar    1  UNL1       -0.1274
      8 C         139.7645  144.3338  161.7720 C.ar    1  UNL1        0.1840
      9 C         140.4308  142.9778  165.3088 C.3     1  UNL1        0.1598
     10 N         141.5338  141.9748  165.1421 N.am    1  UNL1       -0.2687
     11 C         142.0602  141.2337  166.3354 C.2     1  UNL1        0.2502
     12 O         143.1631  140.2308  166.1687 O.2     1  UNL1       -0.2699
     13 C         141.4836  141.4955  167.6952 C.ar    1  UNL1        0.0650
     14 C         142.1234  142.5073  168.5990 C.ar    1  UNL1        0.0054
     15 C         141.5469  142.7691  169.9588 C.ar    1  UNL1        0.0011
     16 C         140.3305  142.0191  170.4148 C.ar    1  UNL1        0.0123
     17 C         139.6907  141.0073  169.5110 C.ar    1  UNL1        0.0683
     18 CL        138.4743  140.2572  169.9669 Cl      1  UNL1       -0.0814
     19 C         140.2673  140.7455  168.1512 C.ar    1  UNL1        0.0725
     20 CL        139.6275  139.7337  167.2474 Cl      1  UNL1       -0.0812
     21 C         140.0221  144.3960  160.2956 C.ar    1  UNL1        0.1171
     22 C         141.0770  145.3162  159.7565 C.ar    1  UNL1        0.0223
     23 C         141.3346  145.3784  158.2800 C.ar    1  UNL1        0.0032
     24 C         140.5374  144.5206  157.3428 C.ar    1  UNL1        0.0207
     25 C         139.4825  143.6004  157.8820 C.ar    1  UNL1        0.0989
     26 N         139.2249  143.5381  159.3583 N.ar    1  UNL1       -0.2407
@<TRIPOS>BOND
     1     2     1    1
     2     2     3    1
     3     3     4    1
     4     4     5   ar
     5     5     6   ar
     6     6     7   ar
     7     7     8   ar
     8     8    21    1
     9    21    22   ar
    10    22    23   ar
    11    23    24   ar
    12    24    25   ar
    13    25    26   ar
    14     5     9    1
    15     9    10    1
    16    10    11   am
    17    11    12    2
    18    11    13    1
    19    13    14   ar
    20    14    15   ar
    21    15    16   ar
    22    16    17   ar
    23    17    18    1
    24    17    19   ar
    25    19    20    1
    26    10     2    1
    27    19    13   ar
    28     8     4   ar
    29    26    21   ar
@<TRIPOS>MOLECULE
*****
 26 29 0 0 0
SMALL
GASTEIGER

@<TRIPOS>ATOM
      1 C         141.4689  138.9971  162.2315 C.3     1  UNL1        0.0236
      2 C         141.4526  140.3850  162.8004 C.3     1  UNL1        0.0987
      3 C         141.4582  141.5717  161.8829 C.3     1  UNL1        0.1285
      4 N         141.4419  142.9595  162.4518 N.ar    1  UNL1       -0.2944
      5 C         141.4199  143.1607  163.9381 C.ar    1  UNL1        0.1636
      6 N         141.4072  144.6365  164.2060 N.ar    1  UNL1       -0.1315
      7 N         141.4214  145.3474  162.8852 N.ar    1  UNL1       -0.1274
      8 C         141.4427  144.3110  161.8011 C.ar    1  UNL1        0.1840
      9 C         141.4143  141.9740  164.8555 C.3     1  UNL1        0.1598
     10 N         141.4306  140.5861  164.2866 N.am    1  UNL1       -0.2687
     11 C         141.4250  139.3994  165.2041 C.2     1  UNL1        0.2502
     12 O         141.4414  138.0115  164.6353 O.2     1  UNL1       -0.2699
     13 C         141.4031  139.6005  166.6904 C.ar    1  UNL1        0.0650
     14 C         142.6839  139.5696  167.4704 C.ar    1  UNL1        0.0054
     15 C         142.6620  139.7708  168.9567 C.ar    1  UNL1        0.0011
     16 C         141.3592  140.0029  169.6630 C.ar    1  UNL1        0.0123
     17 C         140.0784  140.0339  168.8830 C.ar    1  UNL1        0.0683
     18 CL        138.7754  140.2660  169.5892 Cl      1  UNL1       -0.0814
     19 C         140.1003  139.8327  167.3967 C.ar    1  UNL1        0.0725
     20 CL        138.8195  139.8636  166.6166 Cl      1  UNL1       -0.0812
     21 C         141.4617  144.5791  160.3253 C.ar    1  UNL1        0.1171
     22 C         140.3602  145.3778  159.6940 C.ar    1  UNL1        0.0223
     23 C         140.3791  145.6459  158.2182 C.ar    1  UNL1        0.0032
     24 C         141.4995  145.1153  157.3739 C.ar    1  UNL1        0.0207
     25 C         142.6011  144.3165  158.0053 C.ar    1  UNL1        0.0989
     26 N         142.5822  144.0484  159.4810 N.ar    1  UNL1       -0.2407
@<TRIPOS>BOND
     1     2     1    1
     2     2     3    1
     3     3     4    1
     4     4     5   ar
     5     5     6   ar
     6     6     7   ar
     7     7     8   ar
     8     8    21    1
     9    21    22   ar
    10    22    23   ar
    11    23    24   ar
    12    24    25   ar
    13    25    26   ar
    14     5     9    1
    15     9    10    1
    16    10    11   am
    17    11    12    2
    18    11    13    1
    19    13    14   ar
    20    14    15   ar
    21    15    16   ar
    22    16    17   ar
    23    17    18    1
    24    17    19   ar
    25    19    20    1
    26    10     2    1
    27    19    13   ar
    28     8     4   ar
    29    26    21   ar
@<TRIPOS>MOLECULE
*****
 26 29 0 0 0
SMALL
GASTEIGER

@<TRIPOS>ATOM
      1 C         141.7387  138.8388  163.7491 C.3     1  UNL1        0.0236
      2 C         140.8070  140.0115  163.8328 C.3     1  UNL1        0.0987
      3 C         140.2184  140.5925  162.5814 C.3     1  UNL1        0.1285
      4 N         139.2868  141.7651  162.6651 N.ar    1  UNL1       -0.2944
      5 C         138.9438  142.3567  164.0001 C.ar    1  UNL1        0.1636
      6 N         138.0030  143.5025  163.7715 N.ar    1  UNL1       -0.1315
      7 N         137.7647  143.6190  162.2952 N.ar    1  UNL1       -0.1274
      8 C         138.5581  142.5452  161.6114 C.ar    1  UNL1        0.1840
      9 C         139.5324  141.7757  165.2515 C.3     1  UNL1        0.1598
     10 N         140.4640  140.6031  165.1678 N.am    1  UNL1       -0.2687
     11 C         141.0526  140.0220  166.4193 C.2     1  UNL1        0.2502
     12 O         141.9843  138.8494  166.3356 O.2     1  UNL1       -0.2699
     13 C         140.7096  140.6136  167.7543 C.ar    1  UNL1        0.0650
     14 C         139.5256  140.1015  168.5197 C.ar    1  UNL1        0.0054
     15 C         139.1826  140.6931  169.8548 C.ar    1  UNL1        0.0011
     16 C         140.0235  141.7969  170.4244 C.ar    1  UNL1        0.0123
     17 C         141.2075  142.3091  169.6589 C.ar    1  UNL1        0.0683
     18 CL        142.0485  143.4129  170.2285 Cl      1  UNL1       -0.0814
     19 C         141.5505  141.7174  168.3239 C.ar    1  UNL1        0.0725
     20 CL        142.7345  142.2296  167.5585 Cl      1  UNL1       -0.0812
     21 C         138.6131  142.2955  160.1333 C.ar    1  UNL1        0.1171
     22 C         138.2608  140.9434  159.5876 C.ar    1  UNL1        0.0223
     23 C         138.3158  140.6936  158.1095 C.ar    1  UNL1        0.0032
     24 C         138.7230  141.7958  157.1773 C.ar    1  UNL1        0.0207
     25 C         139.0752  143.1479  157.7231 C.ar    1  UNL1        0.0989
     26 N         139.0203  143.3978  159.2010 N.ar    1  UNL1       -0.2407
@<TRIPOS>BOND
     1     2     1    1
     2     2     3    1
     3     3     4    1
     4     4     5   ar
     5     5     6   ar
     6     6     7   ar
     7     7     8   ar
     8     8    21    1
     9    21    22   ar
    10    22    23   ar
    11    23    24   ar
    12    24    25   ar
    13    25    26   ar
    14     5     9    1
    15     9    10    1
    16    10    11   am
    17    11    12    2
    18    11    13    1
    19    13    14   ar
    20    14    15   ar
    21    15    16   ar
    22    16    17   ar
    23    17    18    1
    24    17    19   ar
    25    19    20    1
    26    10     2    1
    27    19    13   ar
    28     8     4   ar
    29    26    21   ar
@<TRIPOS>MOLECULE
*****
 26 29 0 0 0
SMALL
GASTEIGER

@<TRIPOS>ATOM
      1 C         138.5947  144.4704  164.9378 C.3     1  UNL1        0.0236
      2 C         139.8504  143.7629  164.5222 C.3     1  UNL1        0.0987
      3 C         140.7004  143.0773  165.5506 C.3     1  UNL1        0.1285
      4 N         141.9561  142.3698  165.1350 N.ar    1  UNL1       -0.2944
      5 C         142.3618  142.3479  163.6911 C.ar    1  UNL1        0.1636
      6 N         143.6434  141.5762  163.5814 N.ar    1  UNL1       -0.1315
      7 N         144.0297  141.1212  164.9575 N.ar    1  UNL1       -0.1274
      8 C         142.9869  141.6117  165.9177 C.ar    1  UNL1        0.1840
      9 C         141.5119  143.0335  162.6627 C.3     1  UNL1        0.1598
     10 N         140.2562  143.7410  163.0783 N.am    1  UNL1       -0.2687
     11 C         139.4062  144.4266  162.0499 C.2     1  UNL1        0.2502
     12 O         138.1505  145.1341  162.4654 O.2     1  UNL1       -0.2699
     13 C         139.8120  144.4047  160.6060 C.ar    1  UNL1        0.0650
     14 C         140.6787  145.4974  160.0538 C.ar    1  UNL1        0.0054
     15 C         141.0845  145.4754  158.6099 C.ar    1  UNL1        0.0011
     16 C         140.6235  144.3609  157.7182 C.ar    1  UNL1        0.0123
     17 C         139.7568  143.2682  158.2703 C.ar    1  UNL1        0.0683
     18 CL        139.2957  142.1536  157.3786 Cl      1  UNL1       -0.0814
     19 C         139.3510  143.2902  159.7142 C.ar    1  UNL1        0.0725
     20 CL        138.4843  142.1975  160.2664 Cl      1  UNL1       -0.0812
     21 C         142.9767  141.3839  167.4003 C.ar    1  UNL1        0.1171
     22 C         142.6005  140.0400  167.9500 C.ar    1  UNL1        0.0223
     23 C         142.5903  139.8122  169.4327 C.ar    1  UNL1        0.0032
     24 C         142.9562  140.9283  170.3654 C.ar    1  UNL1        0.0207
     25 C         143.3325  142.2723  169.8156 C.ar    1  UNL1        0.0989
     26 N         143.3427  142.5001  168.3331 N.ar    1  UNL1       -0.2407
@<TRIPOS>BOND
     1     2     1    1
     2     2     3    1
     3     3     4    1
     4     4     5   ar
     5     5     6   ar
     6     6     7   ar
     7     7     8   ar
     8     8    21    1
     9    21    22   ar
    10    22    23   ar
    11    23    24   ar
    12    24    25   ar
    13    25    26   ar
    14     5     9    1
    15     9    10    1
    16    10    11   am
    17    11    12    2
    18    11    13    1
    19    13    14   ar
    20    14    15   ar
    21    15    16   ar
    22    16    17   ar
    23    17    18    1
    24    17    19   ar
    25    19    20    1
    26    10     2    1
    27    19    13   ar
    28     8     4   ar
    29    26    21   ar
@<TRIPOS>MOLECULE
*****
 26 29 0 0 0
SMALL
GASTEIGER

@<TRIPOS>ATOM
      1 C         138.6274  144.4242  164.9896 C.3     1  UNL1        0.0236
      2 C         139.6717  143.4354  164.5631 C.3     1  UNL1        0.0987
      3 C         140.5241  142.7541  165.5923 C.3     1  UNL1        0.1285
      4 N         141.5683  141.7653  165.1659 N.ar    1  UNL1       -0.2944
      5 C         141.7602  141.4579  163.7103 C.ar    1  UNL1        0.1636
      6 N         142.8610  140.4458  163.5915 N.ar    1  UNL1       -0.1315
      7 N         143.3493  140.1277  164.9736 N.ar    1  UNL1       -0.1274
      8 C         142.5505  140.9432  165.9467 C.ar    1  UNL1        0.1840
      9 C         140.9079  142.1392  162.6811 C.3     1  UNL1        0.1598
     10 N         139.8636  143.1280  163.1076 N.am    1  UNL1       -0.2687
     11 C         139.0112  143.8095  162.0784 C.2     1  UNL1        0.2502
     12 O         137.9669  144.7982  162.5048 O.2     1  UNL1       -0.2699
     13 C         139.2031  143.5020  160.6228 C.ar    1  UNL1        0.0650
     14 C         138.4523  142.3679  159.9904 C.ar    1  UNL1        0.0054
     15 C         138.6442  142.0605  158.5349 C.ar    1  UNL1        0.0011
     16 C         139.5869  142.8872  157.7117 C.ar    1  UNL1        0.0123
     17 C         140.3378  144.0214  158.3440 C.ar    1  UNL1        0.0683
     18 CL        141.2806  144.8483  157.5209 Cl      1  UNL1       -0.0814
     19 C         140.1458  144.3288  159.7996 C.ar    1  UNL1        0.0725
     20 CL        140.8967  145.4630  160.4320 Cl      1  UNL1       -0.0812
     21 C         142.7063  140.9375  167.4385 C.ar    1  UNL1        0.1171
     22 C         143.1819  142.1709  168.1475 C.ar    1  UNL1        0.0223
     23 C         143.3378  142.1653  169.6395 C.ar    1  UNL1        0.0032
     24 C         143.0182  140.9264  170.4223 C.ar    1  UNL1        0.0207
     25 C         142.5426  139.6930  169.7131 C.ar    1  UNL1        0.0989
     26 N         142.3867  139.6986  168.2214 N.ar    1  UNL1       -0.2407
@<TRIPOS>BOND
     1     2     1    1
     2     2     3    1
     3     3     4    1
     4     4     5   ar
     5     5     6   ar
     6     6     7   ar
     7     7     8   ar
     8     8    21    1
     9    21    22   ar
    10    22    23   ar
    11    23    24   ar
    12    24    25   ar
    13    25    26   ar
    14     5     9    1
    15     9    10    1
    16    10    11   am
    17    11    12    2
    18    11    13    1
    19    13    14   ar
    20    14    15   ar
    21    15    16   ar
    22    16    17   ar
    23    17    18    1
    24    17    19   ar
    25    19    20    1
    26    10     2    1
    27    19    13   ar
    28     8     4   ar
    29    26    21   ar
@<TRIPOS>MOLECULE
*****
 26 29 0 0 0
SMALL
GASTEIGER

@<TRIPOS>ATOM
      1 C         139.0250  140.7240  163.8018 C.3     1  UNL1        0.0236
      2 C         140.2130  141.6360  163.8864 C.3     1  UNL1        0.0987
      3 C         140.8263  142.1869  162.6333 C.3     1  UNL1        0.1285
      4 N         142.0142  143.0989  162.7178 N.ar    1  UNL1       -0.2944
      5 C         142.5889  143.4599  164.0555 C.ar    1  UNL1        0.1636
      6 N         143.7555  144.3747  163.8273 N.ar    1  UNL1       -0.1315
      7 N         143.9019  144.5790  162.3485 N.ar    1  UNL1       -0.1274
      8 C         142.8257  143.7905  161.6628 C.ar    1  UNL1        0.1840
      9 C         141.9756  142.9090  165.3087 C.3     1  UNL1        0.1598
     10 N         140.7876  141.9970  165.2240 N.am    1  UNL1       -0.2687
     11 C         140.1742  141.4461  166.4772 C.2     1  UNL1        0.2502
     12 O         138.9863  140.5342  166.3927 O.2     1  UNL1       -0.2699
     13 C         140.7489  141.8071  167.8149 C.ar    1  UNL1        0.0650
     14 C         140.3571  143.0950  168.4767 C.ar    1  UNL1        0.0054
     15 C         140.9317  143.4561  169.8144 C.ar    1  UNL1        0.0011
     16 C         141.8982  142.5292  170.4904 C.ar    1  UNL1        0.0123
     17 C         142.2900  141.2414  169.8286 C.ar    1  UNL1        0.0683
     18 CL        143.2565  140.3144  170.5046 Cl      1  UNL1       -0.0814
     19 C         141.7153  140.8803  168.4909 C.ar    1  UNL1        0.0725
     20 CL        142.1071  139.5925  167.8292 Cl      1  UNL1       -0.0812
     21 C         142.6006  143.7082  160.1821 C.ar    1  UNL1        0.1171
     22 C         142.7832  142.4022  159.4672 C.ar    1  UNL1        0.0223
     23 C         142.5581  142.3198  157.9865 C.ar    1  UNL1        0.0032
     24 C         142.1504  143.5433  157.2206 C.ar    1  UNL1        0.0207
     25 C         141.9678  144.8494  157.9356 C.ar    1  UNL1        0.0989
     26 N         142.1929  144.9318  159.4162 N.ar    1  UNL1       -0.2407
@<TRIPOS>BOND
     1     2     1    1
     2     2     3    1
     3     3     4    1
     4     4     5   ar
     5     5     6   ar
     6     6     7   ar
     7     7     8   ar
     8     8    21    1
     9    21    22   ar
    10    22    23   ar
    11    23    24   ar
    12    24    25   ar
    13    25    26   ar
    14     5     9    1
    15     9    10    1
    16    10    11   am
    17    11    12    2
    18    11    13    1
    19    13    14   ar
    20    14    15   ar
    21    15    16   ar
    22    16    17   ar
    23    17    18    1
    24    17    19   ar
    25    19    20    1
    26    10     2    1
    27    19    13   ar
    28     8     4   ar
    29    26    21   ar
@<TRIPOS>MOLECULE
*****
 26 29 0 0 0
SMALL
GASTEIGER

@<TRIPOS>ATOM
      1 C         141.3645  145.5268  158.6359 C.3     1  UNL1        0.0236
      2 C         141.7362  144.1501  159.1014 C.3     1  UNL1        0.0987
      3 C         142.7991  143.3760  158.3796 C.3     1  UNL1        0.1285
      4 N         143.1709  141.9994  158.8450 N.ar    1  UNL1       -0.2944
      5 C         142.4798  141.3968  160.0321 C.ar    1  UNL1        0.1636
      6 N         143.0540  140.0296  160.2582 N.ar    1  UNL1       -0.1315
      7 N         144.1000  139.7872  159.2108 N.ar    1  UNL1       -0.1274
      8 C         144.1723  141.0046  158.3373 C.ar    1  UNL1        0.1840
      9 C         141.4169  142.1709  160.7539 C.3     1  UNL1        0.1598
     10 N         141.0452  143.5476  160.2885 N.am    1  UNL1       -0.2687
     11 C         139.9822  144.3218  161.0103 C.2     1  UNL1        0.2502
     12 O         139.6104  145.6985  160.5449 O.2     1  UNL1       -0.2699
     13 C         139.2911  143.7193  162.1974 C.ar    1  UNL1        0.0650
     14 C         138.0779  142.8591  162.0022 C.ar    1  UNL1        0.0054
     15 C         137.3868  142.2565  163.1894 C.ar    1  UNL1        0.0011
     16 C         137.9089  142.5142  164.5717 C.ar    1  UNL1        0.0123
     17 C         139.1221  143.3744  164.7670 C.ar    1  UNL1        0.0683
     18 CL        139.6443  143.6322  166.1494 Cl      1  UNL1       -0.0814
     19 C         139.8132  143.9770  163.5798 C.ar    1  UNL1        0.0725
     20 CL        141.0264  144.8372  163.7750 Cl      1  UNL1       -0.0812
     21 C         145.0855  141.1938  157.1626 C.ar    1  UNL1        0.1171
     22 C         144.9109  140.3517  155.9336 C.ar    1  UNL1        0.0223
     23 C         145.8242  140.5410  154.7587 C.ar    1  UNL1        0.0032
     24 C         146.9120  141.5723  154.8129 C.ar    1  UNL1        0.0207
     25 C         147.0866  142.4144  156.0420 C.ar    1  UNL1        0.0989
     26 N         146.1734  142.2252  157.2168 N.ar    1  UNL1       -0.2407
@<TRIPOS>BOND
     1     2     1    1
     2     2     3    1
     3     3     4    1
     4     4     5   ar
     5     5     6   ar
     6     6     7   ar
     7     7     8   ar
     8     8    21    1
     9    21    22   ar
    10    22    23   ar
    11    23    24   ar
    12    24    25   ar
    13    25    26   ar
    14     5     9    1
    15     9    10    1
    16    10    11   am
    17    11    12    2
    18    11    13    1
    19    13    14   ar
    20    14    15   ar
    21    15    16   ar
    22    16    17   ar
    23    17    18    1
    24    17    19   ar
    25    19    20    1
    26    10     2    1
    27    19    13   ar
    28     8     4   ar
    29    26    21   ar
@<TRIPOS>MOLECULE
*****
 26 29 0 0 0
SMALL
GASTEIGER

@<TRIPOS>ATOM
      1 C         143.7053  142.1469  163.8936 C.3     1  UNL1        0.0236
      2 C         142.7028  141.0357  163.9954 C.3     1  UNL1        0.0987
      3 C         142.2443  140.3236  162.7573 C.3     1  UNL1        0.1285
      4 N         141.2419  139.2124  162.8590 N.ar    1  UNL1       -0.2944
      5 C         140.6980  138.8133  164.1988 C.ar    1  UNL1        0.1636
      6 N         139.7277  137.6888  163.9888 N.ar    1  UNL1       -0.1315
      7 N         139.6720  137.3930  162.5194 N.ar    1  UNL1       -0.1274
      8 C         140.6078  138.3346  161.8211 C.ar    1  UNL1        0.1840
      9 C         141.1565  139.5253  165.4368 C.3     1  UNL1        0.1598
     10 N         142.1590  140.6365  165.3350 N.am    1  UNL1       -0.2687
     11 C         142.6176  141.3486  166.5731 C.2     1  UNL1        0.2502
     12 O         143.6200  142.4599  166.4714 O.2     1  UNL1       -0.2699
     13 C         142.0737  140.9495  167.9128 C.ar    1  UNL1        0.0650
     14 C         142.6220  139.7432  168.6158 C.ar    1  UNL1        0.0054
     15 C         142.0781  139.3440  169.9555 C.ar    1  UNL1        0.0011
     16 C         140.9859  140.1511  170.5923 C.ar    1  UNL1        0.0123
     17 C         140.4375  141.3574  169.8894 C.ar    1  UNL1        0.0683
     18 CL        139.3452  142.1647  170.5261 Cl      1  UNL1       -0.0814
     19 C         140.9814  141.7566  168.5496 C.ar    1  UNL1        0.0725
     20 CL        140.4331  142.9629  167.8467 Cl      1  UNL1       -0.0812
     21 C         140.8643  138.3889  160.3442 C.ar    1  UNL1        0.1171
     22 C         142.2550  138.1940  159.8169 C.ar    1  UNL1        0.0223
     23 C         142.5117  138.2483  158.3400 C.ar    1  UNL1        0.0032
     24 C         141.3776  138.4975  157.3904 C.ar    1  UNL1        0.0207
     25 C         139.9869  138.6924  157.9178 C.ar    1  UNL1        0.0989
     26 N         139.7303  138.6381  159.3946 N.ar    1  UNL1       -0.2407
@<TRIPOS>BOND
     1     2     1    1
     2     2     3    1
     3     3     4    1
     4     4     5   ar
     5     5     6   ar
     6     6     7   ar
     7     7     8   ar
     8     8    21    1
     9    21    22   ar
    10    22    23   ar
    11    23    24   ar
    12    24    25   ar
    13    25    26   ar
    14     5     9    1
    15     9    10    1
    16    10    11   am
    17    11    12    2
    18    11    13    1
    19    13    14   ar
    20    14    15   ar
    21    15    16   ar
    22    16    17   ar
    23    17    18    1
    24    17    19   ar
    25    19    20    1
    26    10     2    1
    27    19    13   ar
    28     8     4   ar
    29    26    21   ar
@<TRIPOS>MOLECULE
*****
 26 29 0 0 0
SMALL
GASTEIGER

@<TRIPOS>ATOM
      1 C         138.4449  138.8550  165.6524 C.3     1  UNL1        0.0236
      2 C         139.2860  139.9643  165.0937 C.3     1  UNL1        0.0987
      3 C         139.3938  140.1489  163.6090 C.3     1  UNL1        0.1285
      4 N         140.2348  141.2581  163.0503 N.ar    1  UNL1       -0.2944
      5 C         140.9680  142.1828  163.9762 C.ar    1  UNL1        0.1636
      6 N         141.7156  143.1790  163.1404 N.ar    1  UNL1       -0.1315
      7 N         141.4444  142.8700  161.6978 N.ar    1  UNL1       -0.1274
      8 C         140.5292  141.6828  161.6421 C.ar    1  UNL1        0.1840
      9 C         140.8602  141.9982  165.4609 C.3     1  UNL1        0.1598
     10 N         140.0191  140.8889  166.0196 N.am    1  UNL1       -0.2687
     11 C         139.9113  140.7043  167.5044 C.2     1  UNL1        0.2502
     12 O         139.0703  139.5950  168.0631 O.2     1  UNL1       -0.2699
     13 C         140.6445  141.6290  168.4303 C.ar    1  UNL1        0.0650
     14 C         139.9382  142.8119  169.0234 C.ar    1  UNL1        0.0054
     15 C         140.6714  143.7366  169.9493 C.ar    1  UNL1        0.0011
     16 C         142.1110  143.4784  170.2822 C.ar    1  UNL1        0.0123
     17 C         142.8174  142.2954  169.6892 C.ar    1  UNL1        0.0683
     18 CL        144.2570  142.0370  170.0221 Cl      1  UNL1       -0.0814
     19 C         142.0841  141.3707  168.7633 C.ar    1  UNL1        0.0725
     20 CL        142.7905  140.1878  168.1702 Cl      1  UNL1       -0.0812
     21 C         140.0012  141.0343  160.3969 C.ar    1  UNL1        0.1171
     22 C         140.9174  140.2279  159.5250 C.ar    1  UNL1        0.0223
     23 C         140.3894  139.5793  158.2797 C.ar    1  UNL1        0.0032
     24 C         138.9453  139.7371  157.9064 C.ar    1  UNL1        0.0207
     25 C         138.0291  140.5436  158.7784 C.ar    1  UNL1        0.0989
     26 N         138.5570  141.1922  160.0236 N.ar    1  UNL1       -0.2407
@<TRIPOS>BOND
     1     2     1    1
     2     2     3    1
     3     3     4    1
     4     4     5   ar
     5     5     6   ar
     6     6     7   ar
     7     7     8   ar
     8     8    21    1
     9    21    22   ar
    10    22    23   ar
    11    23    24   ar
    12    24    25   ar
    13    25    26   ar
    14     5     9    1
    15     9    10    1
    16    10    11   am
    17    11    12    2
    18    11    13    1
    19    13    14   ar
    20    14    15   ar
    21    15    16   ar
    22    16    17   ar
    23    17    18    1
    24    17    19   ar
    25    19    20    1
    26    10     2    1
    27    19    13   ar
    28     8     4   ar
    29    26    21   ar
