@<TRIPOS>MOLECULE
*****
 36 39 0 0 0
SMALL
GASTEIGER

@<TRIPOS>ATOM
      1 C         140.9353  141.7876  165.4687 C.3     1  UNL1        0.0837
      2 C         140.0784  144.0448  164.5090 C.ar    1  UNL1        0.2211
      3 N         139.9725  145.0159  163.3707 N.ar    1  UNL1       -0.2119
      4 C         140.6177  144.7009  162.0537 C.ar    1  UNL1        0.0844
      5 C         140.5118  145.6720  160.9154 C.ar    1  UNL1        0.0197
      6 C         141.1571  145.3570  159.5984 C.ar    1  UNL1        0.0082
      7 C         141.9081  144.0710  159.4197 C.ar    1  UNL1        0.0347
      8 BR        142.5534  143.7560  158.1027 Br      1  UNL1       -0.0490
      9 C         142.0140  143.0999  160.5580 C.ar    1  UNL1        0.0082
     10 C         141.3688  143.4149  161.8750 C.ar    1  UNL1        0.0181
     11 C         141.4746  142.4437  163.0133 C.ar    1  UNL1        0.0023
     12 C         140.8294  142.7587  164.3303 C.ar    1  UNL1        0.0379
     13 C         138.1420  145.1223  165.8654 C.3     1  UNL1        0.2542
     14 O         139.4331  144.3597  165.8260 O.3     1  UNL1       -0.4563
     15 C         140.1307  140.5218  165.4520 C.ar    1  UNL1        0.0131
     16 C         139.2003  140.0541  166.5316 C.ar    1  UNL1       -0.0015
     17 C         138.6098  138.7447  166.0996 C.ar    1  UNL1       -0.0197
     18 C         137.6266  137.9214  166.8776 C.3     1  UNL1        0.0312
     19 C         139.1752  138.4031  164.7528 C.ar    1  UNL1        0.0034
     20 C         138.8566  137.1783  163.9477 C.3     1  UNL1        0.0378
     21 S         140.1152  139.5014  164.3526 S.2     1  UNL1       -0.0955
     22 C         141.8458  142.0824  166.6237 C.3     1  UNL1        0.1164
     23 O         140.6538  142.3311  167.4998 O.3     1  UNL1       -0.3820
     24 H         140.9482  142.4773  168.4124 H       1  UNL1        0.2107
     25 C         143.0377  141.8337  165.7477 C.ar    1  UNL1        0.0046
     26 C         143.8957  142.9816  165.3050 C.ar    1  UNL1       -0.0019
     27 C         145.0876  142.7329  164.4289 C.ar    1  UNL1        0.0021
     28 C         145.4215  141.3363  163.9955 C.ar    1  UNL1        0.0296
     29 C         144.5635  140.1883  164.4382 C.ar    1  UNL1        0.1399
     30 F         144.8974  138.7916  164.0048 F       1  UNL1       -0.2042
     31 C         143.3716  140.4370  165.3143 C.ar    1  UNL1        0.0276
     32 C         142.7562  142.3771  167.7788 C.3     1  UNL1        0.0491
     33 C         142.9936  141.3354  168.8315 C.3     1  UNL1        0.0750
     34 N         141.9319  141.0429  169.8500 N.3     1  UNL1       -0.2702
     35 C         141.1697  139.7524  169.7894 C.3     1  UNL1        0.0897
     36 C         141.6326  142.0407  170.9292 C.3     1  UNL1        0.0897
@<TRIPOS>BOND
     1    13    14    1
     2    14     2    1
     3     2     3   ar
     4     3     4   ar
     5     4     5   ar
     6     5     6   ar
     7     6     7   ar
     8     7     8    1
     9     7     9   ar
    10     9    10   ar
    11    10    11   ar
    12    11    12   ar
    13     1    12    1
    14     1    15    1
    15    15    16   ar
    16    16    17   ar
    17    17    18    1
    18    17    19   ar
    19    19    20    1
    20    19    21   ar
    21     1    22    1
    22    22    23    1
    23    22    32    1
    24    32    33    1
    25    33    34    1
    26    34    35    1
    27    34    36    1
    28    22    25    1
    29    25    26   ar
    30    26    27   ar
    31    27    28   ar
    32    28    29   ar
    33    29    30    1
    34    29    31   ar
    35    12     2   ar
    36    21    15   ar
    37    31    25   ar
    38    10     4   ar
    39    23    24    1
@<TRIPOS>MOLECULE
*****
 36 39 0 0 0
SMALL
GASTEIGER

@<TRIPOS>ATOM
      1 C         141.4945  141.2704  164.3313 C.3     1  UNL1        0.0837
      2 C         142.9927  139.3316  163.4671 C.ar    1  UNL1        0.2211
      3 N         143.4072  138.4024  162.3650 N.ar    1  UNL1       -0.2119
      4 C         142.7380  138.4825  161.0249 C.ar    1  UNL1        0.0844
      5 C         143.1525  137.5532  159.9228 C.ar    1  UNL1        0.0197
      6 C         142.4833  137.6334  158.5828 C.ar    1  UNL1        0.0082
      7 C         141.3996  138.6428  158.3449 C.ar    1  UNL1        0.0347
      8 BR        140.7304  138.7229  157.0047 Br      1  UNL1       -0.0490
      9 C         140.9851  139.5721  159.4469 C.ar    1  UNL1        0.0082
     10 C         141.6543  139.4919  160.7869 C.ar    1  UNL1        0.0181
     11 C         141.2398  140.4212  161.8891 C.ar    1  UNL1        0.0023
     12 C         141.9090  140.3411  163.2291 C.ar    1  UNL1        0.0379
     13 C         143.2123  138.2308  165.8102 C.3     1  UNL1        0.2542
     14 O         143.6619  139.2515  164.8072 O.3     1  UNL1       -0.4563
     15 C         140.6432  140.7649  165.4581 C.ar    1  UNL1        0.0131
     16 C         139.4705  139.8383  165.3303 C.ar    1  UNL1       -0.0015
     17 C         138.9178  139.5979  166.7038 C.ar    1  UNL1       -0.0197
     18 C         137.7406  138.7317  167.0413 C.3     1  UNL1        0.0312
     19 C         139.7489  140.3760  167.6806 C.ar    1  UNL1        0.0034
     20 C         139.5487  140.4243  169.1664 C.3     1  UNL1        0.0378
     21 S         140.8152  141.0971  166.9107 S.2     1  UNL1       -0.0955
     22 C         141.9312  142.7052  164.3065 C.3     1  UNL1        0.1164
     23 O         143.3620  142.2718  164.4293 O.3     1  UNL1       -0.3820
     24 H         143.9419  143.0454  164.3518 H       1  UNL1        0.2107
     25 C         140.5004  143.1386  164.1837 C.ar    1  UNL1        0.0046
     26 C         139.6624  142.6442  163.0421 C.ar    1  UNL1       -0.0019
     27 C         138.2316  143.0776  162.9193 C.ar    1  UNL1        0.0021
     28 C         137.6389  144.0054  163.9381 C.ar    1  UNL1        0.0296
     29 C         138.4770  144.4997  165.0797 C.ar    1  UNL1        0.1399
     30 F         137.8843  145.4275  166.0985 F       1  UNL1       -0.2042
     31 C         139.9077  144.0663  165.2025 C.ar    1  UNL1        0.0276
     32 C         142.3680  144.1400  164.2817 C.3     1  UNL1        0.0491
     33 C         143.2361  144.6405  163.1656 C.3     1  UNL1        0.0750
     34 N         143.0908  144.0667  161.7873 N.3     1  UNL1       -0.2702
     35 C         141.9180  144.4507  160.9347 C.3     1  UNL1        0.0897
     36 C         144.1184  143.1087  161.2616 C.3     1  UNL1        0.0897
@<TRIPOS>BOND
     1    13    14    1
     2    14     2    1
     3     2     3   ar
     4     3     4   ar
     5     4     5   ar
     6     5     6   ar
     7     6     7   ar
     8     7     8    1
     9     7     9   ar
    10     9    10   ar
    11    10    11   ar
    12    11    12   ar
    13     1    12    1
    14     1    15    1
    15    15    16   ar
    16    16    17   ar
    17    17    18    1
    18    17    19   ar
    19    19    20    1
    20    19    21   ar
    21     1    22    1
    22    22    23    1
    23    22    32    1
    24    32    33    1
    25    33    34    1
    26    34    35    1
    27    34    36    1
    28    22    25    1
    29    25    26   ar
    30    26    27   ar
    31    27    28   ar
    32    28    29   ar
    33    29    30    1
    34    29    31   ar
    35    12     2   ar
    36    21    15   ar
    37    31    25   ar
    38    10     4   ar
    39    23    24    1
@<TRIPOS>MOLECULE
*****
 36 39 0 0 0
SMALL
GASTEIGER

@<TRIPOS>ATOM
      1 C         141.2056  141.6880  162.7337 C.3     1  UNL1        0.0837
      2 C         139.6220  141.0566  164.6943 C.ar    1  UNL1        0.2211
      3 N         139.3553  140.9520  166.1667 N.ar    1  UNL1       -0.2119
      4 C         140.4055  141.3743  167.1510 C.ar    1  UNL1        0.0844
      5 C         140.1388  141.2697  168.6233 C.ar    1  UNL1        0.0197
      6 C         141.1890  141.6920  169.6076 C.ar    1  UNL1        0.0082
      7 C         142.5059  142.2188  169.1195 C.ar    1  UNL1        0.0347
      8 BR        143.5561  142.6411  170.1038 Br      1  UNL1       -0.0490
      9 C         142.7726  142.3234  167.6471 C.ar    1  UNL1        0.0082
     10 C         141.7224  141.9011  166.6629 C.ar    1  UNL1        0.0181
     11 C         141.9891  142.0057  165.1904 C.ar    1  UNL1        0.0023
     12 C         140.9389  141.5834  164.2062 C.ar    1  UNL1        0.0379
     13 C         137.4848  141.5902  163.3167 C.3     1  UNL1        0.2542
     14 O         138.5718  140.6343  163.7100 O.3     1  UNL1       -0.4563
     15 C         140.9625  142.9834  162.0177 C.ar    1  UNL1        0.0131
     16 C         141.4108  143.3192  160.6261 C.ar    1  UNL1       -0.0015
     17 C         140.9538  144.7138  160.3158 C.ar    1  UNL1       -0.0197
     18 C         141.1867  145.4526  159.0313 C.3     1  UNL1        0.0312
     19 C         140.2232  145.2399  161.5156 C.ar    1  UNL1        0.0034
     20 C         139.5970  146.5972  161.6415 C.3     1  UNL1        0.0378
     21 S         140.2285  144.1704  162.5674 S.2     1  UNL1       -0.0955
     22 C         141.7153  140.4971  161.9774 C.3     1  UNL1        0.1164
     23 O         140.3630  140.3137  161.3548 O.3     1  UNL1       -0.3820
     24 H         140.4047  139.6047  160.6941 H       1  UNL1        0.2107
     25 C         143.0676  140.6805  162.6001 C.ar    1  UNL1        0.0046
     26 C         143.8900  141.8892  162.2646 C.ar    1  UNL1       -0.0019
     27 C         145.2423  142.0725  162.8872 C.ar    1  UNL1        0.0021
     28 C         145.7722  141.0473  163.8453 C.ar    1  UNL1        0.0296
     29 C         144.9497  139.8386  164.1808 C.ar    1  UNL1        0.1399
     30 F         145.4795  138.8132  165.1390 F       1  UNL1       -0.2042
     31 C         143.5974  139.6552  163.5582 C.ar    1  UNL1        0.0276
     32 C         142.2250  139.3062  161.2211 C.3     1  UNL1        0.0491
     33 C         141.3558  138.0951  161.0548 C.3     1  UNL1        0.0750
     34 N         140.4842  137.6364  162.1861 N.3     1  UNL1       -0.2702
     35 C         141.1055  137.1116  163.4465 C.3     1  UNL1        0.0897
     36 C         138.9912  137.7025  162.0571 C.3     1  UNL1        0.0897
@<TRIPOS>BOND
     1    13    14    1
     2    14     2    1
     3     2     3   ar
     4     3     4   ar
     5     4     5   ar
     6     5     6   ar
     7     6     7   ar
     8     7     8    1
     9     7     9   ar
    10     9    10   ar
    11    10    11   ar
    12    11    12   ar
    13     1    12    1
    14     1    15    1
    15    15    16   ar
    16    16    17   ar
    17    17    18    1
    18    17    19   ar
    19    19    20    1
    20    19    21   ar
    21     1    22    1
    22    22    23    1
    23    22    32    1
    24    32    33    1
    25    33    34    1
    26    34    35    1
    27    34    36    1
    28    22    25    1
    29    25    26   ar
    30    26    27   ar
    31    27    28   ar
    32    28    29   ar
    33    29    30    1
    34    29    31   ar
    35    12     2   ar
    36    21    15   ar
    37    31    25   ar
    38    10     4   ar
    39    23    24    1
@<TRIPOS>MOLECULE
*****
 36 39 0 0 0
SMALL
GASTEIGER

@<TRIPOS>ATOM
      1 C         140.9058  141.0109  164.5657 C.3     1  UNL1        0.0837
      2 C         141.6295  139.2470  162.8007 C.ar    1  UNL1        0.2211
      3 N         141.5011  138.6532  161.4293 N.ar    1  UNL1       -0.2119
      4 C         140.5204  139.2294  160.4513 C.ar    1  UNL1        0.0844
      5 C         140.3920  138.6356  159.0798 C.ar    1  UNL1        0.0197
      6 C         139.4114  139.2118  158.1019 C.ar    1  UNL1        0.0082
      7 C         138.5593  140.3818  158.4954 C.ar    1  UNL1        0.0347
      8 BR        137.5786  140.9580  157.5174 Br      1  UNL1       -0.0490
      9 C         138.6877  140.9757  159.8668 C.ar    1  UNL1        0.0082
     10 C         139.6683  140.3994  160.8448 C.ar    1  UNL1        0.0181
     11 C         139.7967  140.9933  162.2163 C.ar    1  UNL1        0.0023
     12 C         140.7773  140.4171  163.1942 C.ar    1  UNL1        0.0379
     13 C         142.1742  137.6015  164.7360 C.3     1  UNL1        0.2542
     14 O         142.6101  138.6708  163.7787 O.3     1  UNL1       -0.4563
     15 C         140.0962  140.4583  165.7011 C.ar    1  UNL1        0.0131
     16 C         140.2503  140.8156  167.1497 C.ar    1  UNL1       -0.0015
     17 C         139.2397  140.0295  167.9311 C.ar    1  UNL1       -0.0197
     18 C         139.0424  140.0781  169.4173 C.3     1  UNL1        0.0312
     19 C         138.4609  139.1863  166.9654 C.ar    1  UNL1        0.0034
     20 C         137.3482  138.2436  167.3163 C.3     1  UNL1        0.0378
     21 S         138.9903  139.4513  165.5872 S.2     1  UNL1       -0.0955
     22 C         141.8439  142.1573  164.8017 C.3     1  UNL1        0.1164
     23 O         142.8716  141.2058  165.3388 O.3     1  UNL1       -0.3820
     24 H         143.6956  141.6859  165.5157 H       1  UNL1        0.2107
     25 C         140.8162  143.1088  164.2646 C.ar    1  UNL1        0.0046
     26 C         141.0652  143.8315  162.9740 C.ar    1  UNL1       -0.0019
     27 C         140.0375  144.7831  162.4369 C.ar    1  UNL1        0.0021
     28 C         138.7609  145.0119  163.1904 C.ar    1  UNL1        0.0296
     29 C         138.5119  144.2891  164.4810 C.ar    1  UNL1        0.1399
     30 F         137.2352  144.5179  165.2345 F       1  UNL1       -0.2042
     31 C         139.5396  143.3376  165.0181 C.ar    1  UNL1        0.0276
     32 C         142.7820  143.3037  165.0378 C.3     1  UNL1        0.0491
     33 C         144.2640  143.0908  164.9478 C.3     1  UNL1        0.0750
     34 N         144.8883  142.7050  163.6396 N.3     1  UNL1       -0.2702
     35 C         144.5503  143.4682  162.3933 C.3     1  UNL1        0.0897
     36 C         145.8506  141.5561  163.5776 C.3     1  UNL1        0.0897
@<TRIPOS>BOND
     1    13    14    1
     2    14     2    1
     3     2     3   ar
     4     3     4   ar
     5     4     5   ar
     6     5     6   ar
     7     6     7   ar
     8     7     8    1
     9     7     9   ar
    10     9    10   ar
    11    10    11   ar
    12    11    12   ar
    13     1    12    1
    14     1    15    1
    15    15    16   ar
    16    16    17   ar
    17    17    18    1
    18    17    19   ar
    19    19    20    1
    20    19    21   ar
    21     1    22    1
    22    22    23    1
    23    22    32    1
    24    32    33    1
    25    33    34    1
    26    34    35    1
    27    34    36    1
    28    22    25    1
    29    25    26   ar
    30    26    27   ar
    31    27    28   ar
    32    28    29   ar
    33    29    30    1
    34    29    31   ar
    35    12     2   ar
    36    21    15   ar
    37    31    25   ar
    38    10     4   ar
    39    23    24    1
@<TRIPOS>MOLECULE
*****
 36 39 0 0 0
SMALL
GASTEIGER

@<TRIPOS>ATOM
      1 C         141.8641  142.2551  162.7931 C.3     1  UNL1        0.0837
      2 C         143.4165  142.6469  164.8392 C.ar    1  UNL1        0.2211
      3 N         143.6545  142.5899  166.3190 N.ar    1  UNL1       -0.2119
      4 C         142.5779  142.0840  167.2329 C.ar    1  UNL1        0.0844
      5 C         142.8158  142.0269  168.7127 C.ar    1  UNL1        0.0197
      6 C         141.7392  141.5210  169.6265 C.ar    1  UNL1        0.0082
      7 C         140.4247  141.0721  169.0603 C.ar    1  UNL1        0.0347
      8 BR        139.3481  140.5662  169.9742 Br      1  UNL1       -0.0490
      9 C         140.1868  141.1291  167.5805 C.ar    1  UNL1        0.0082
     10 C         141.2633  141.6351  166.6667 C.ar    1  UNL1        0.0181
     11 C         141.0254  141.6921  165.1868 C.ar    1  UNL1        0.0023
     12 C         142.1020  142.1980  164.2730 C.ar    1  UNL1        0.0379
     13 C         145.5519  142.2165  163.4232 C.3     1  UNL1        0.2542
     14 O         144.4931  143.1529  163.9253 O.3     1  UNL1       -0.4563
     15 C         141.9360  141.0012  161.9730 C.ar    1  UNL1        0.0131
     16 C         141.0247  140.6359  160.8389 C.ar    1  UNL1       -0.0015
     17 C         141.4573  139.3014  160.3080 C.ar    1  UNL1       -0.0197
     18 C         140.8227  138.5570  159.1709 C.3     1  UNL1        0.0312
     19 C         142.6360  138.8419  161.1140 C.ar    1  UNL1        0.0034
     20 C         143.3871  137.5574  160.9243 C.3     1  UNL1        0.0378
     21 S         142.9319  139.8925  162.1430 S.2     1  UNL1       -0.0955
     22 C         141.5543  143.5661  162.1332 C.3     1  UNL1        0.1164
     23 O         142.8227  143.4660  161.3389 O.3     1  UNL1       -0.3820
     24 H         142.8642  144.1970  160.7026 H       1  UNL1        0.2107
     25 C         140.2858  143.6661  162.9276 C.ar    1  UNL1        0.0046
     26 C         140.1512  144.7086  163.9976 C.ar    1  UNL1       -0.0019
     27 C         138.8828  144.8087  164.7920 C.ar    1  UNL1        0.0021
     28 C         137.7489  143.8662  164.5164 C.ar    1  UNL1        0.0296
     29 C         137.8835  142.8236  163.4464 C.ar    1  UNL1        0.1399
     30 F         136.7496  141.8810  163.1707 F       1  UNL1       -0.2042
     31 C         139.1520  142.7236  162.6520 C.ar    1  UNL1        0.0276
     32 C         141.2444  144.8770  161.4734 C.3     1  UNL1        0.0491
     33 C         141.3894  145.0216  159.9875 C.3     1  UNL1        0.0750
     34 N         140.9065  143.9315  159.0773 N.3     1  UNL1       -0.2702
     35 C         141.8666  143.2505  158.1475 C.3     1  UNL1        0.0897
     36 C         139.4636  143.5224  159.0967 C.3     1  UNL1        0.0897
@<TRIPOS>BOND
     1    13    14    1
     2    14     2    1
     3     2     3   ar
     4     3     4   ar
     5     4     5   ar
     6     5     6   ar
     7     6     7   ar
     8     7     8    1
     9     7     9   ar
    10     9    10   ar
    11    10    11   ar
    12    11    12   ar
    13     1    12    1
    14     1    15    1
    15    15    16   ar
    16    16    17   ar
    17    17    18    1
    18    17    19   ar
    19    19    20    1
    20    19    21   ar
    21     1    22    1
    22    22    23    1
    23    22    32    1
    24    32    33    1
    25    33    34    1
    26    34    35    1
    27    34    36    1
    28    22    25    1
    29    25    26   ar
    30    26    27   ar
    31    27    28   ar
    32    28    29   ar
    33    29    30    1
    34    29    31   ar
    35    12     2   ar
    36    21    15   ar
    37    31    25   ar
    38    10     4   ar
    39    23    24    1
@<TRIPOS>MOLECULE
*****
 36 39 0 0 0
SMALL
GASTEIGER

@<TRIPOS>ATOM
      1 C         140.3187  141.2566  163.3785 C.3     1  UNL1        0.0837
      2 C         139.7887  143.0187  165.2126 C.ar    1  UNL1        0.2211
      3 N         139.8982  143.4887  166.6328 N.ar    1  UNL1       -0.2119
      4 C         140.6473  142.6665  167.6393 C.ar    1  UNL1        0.0844
      5 C         140.7567  143.1364  169.0596 C.ar    1  UNL1        0.0197
      6 C         141.5057  142.3142  170.0660 C.ar    1  UNL1        0.0082
      7 C         142.1453  141.0220  169.6521 C.ar    1  UNL1        0.0347
      8 BR        142.8943  140.1998  170.6586 Br      1  UNL1       -0.0490
      9 C         142.0358  140.5520  168.2319 C.ar    1  UNL1        0.0082
     10 C         141.2868  141.3743  167.2255 C.ar    1  UNL1        0.0181
     11 C         141.1772  140.9043  165.8052 C.ar    1  UNL1        0.0023
     12 C         140.4282  141.7265  164.7988 C.ar    1  UNL1        0.0379
     13 C         139.7147  144.9981  163.5313 C.3     1  UNL1        0.2542
     14 O         139.0397  143.8410  164.2061 O.3     1  UNL1       -0.4563
     15 C         141.5417  141.1960  162.5121 C.ar    1  UNL1        0.0131
     16 C         142.0039  140.0082  161.7211 C.ar    1  UNL1       -0.0015
     17 C         143.2651  140.3907  161.0048 C.ar    1  UNL1       -0.0197
     18 C         144.0680  139.5046  160.0991 C.3     1  UNL1        0.0312
     19 C         143.5823  141.8148  161.3530 C.ar    1  UNL1        0.0034
     20 C         144.7582  142.6029  160.8568 C.3     1  UNL1        0.0378
     21 S         142.5172  142.3125  162.2846 S.2     1  UNL1       -0.0955
     22 C         138.9862  140.8472  162.8246 C.3     1  UNL1        0.1164
     23 O         139.0392  141.9890  161.8533 O.3     1  UNL1       -0.3820
     24 H         138.2829  141.9343  161.2484 H       1  UNL1        0.2107
     25 C         138.9332  139.7054  163.7959 C.ar    1  UNL1        0.0046
     26 C         139.7256  138.4594  163.5326 C.ar    1  UNL1       -0.0019
     27 C         139.6727  137.3175  164.5039 C.ar    1  UNL1        0.0021
     28 C         138.8273  137.4218  165.7386 C.ar    1  UNL1        0.0296
     29 C         138.0349  138.6678  166.0019 C.ar    1  UNL1        0.1399
     30 F         137.1894  138.7721  167.2366 F       1  UNL1       -0.2042
     31 C         138.0878  139.8096  165.0306 C.ar    1  UNL1        0.0276
     32 C         137.6536  140.4379  162.2707 C.3     1  UNL1        0.0491
     33 C         137.5756  139.3835  161.2067 C.3     1  UNL1        0.0750
     34 N         138.3863  139.5222  159.9524 N.3     1  UNL1       -0.2702
     35 C         139.5542  138.6128  159.7098 C.3     1  UNL1        0.0897
     36 C         138.0291  140.5704  158.9406 C.3     1  UNL1        0.0897
@<TRIPOS>BOND
     1    13    14    1
     2    14     2    1
     3     2     3   ar
     4     3     4   ar
     5     4     5   ar
     6     5     6   ar
     7     6     7   ar
     8     7     8    1
     9     7     9   ar
    10     9    10   ar
    11    10    11   ar
    12    11    12   ar
    13     1    12    1
    14     1    15    1
    15    15    16   ar
    16    16    17   ar
    17    17    18    1
    18    17    19   ar
    19    19    20    1
    20    19    21   ar
    21     1    22    1
    22    22    23    1
    23    22    32    1
    24    32    33    1
    25    33    34    1
    26    34    35    1
    27    34    36    1
    28    22    25    1
    29    25    26   ar
    30    26    27   ar
    31    27    28   ar
    32    28    29   ar
    33    29    30    1
    34    29    31   ar
    35    12     2   ar
    36    21    15   ar
    37    31    25   ar
    38    10     4   ar
    39    23    24    1
@<TRIPOS>MOLECULE
*****
 36 39 0 0 0
SMALL
GASTEIGER

@<TRIPOS>ATOM
      1 C         140.9652  141.1748  162.6147 C.3     1  UNL1        0.0837
      2 C         139.5033  140.0249  164.4287 C.ar    1  UNL1        0.2211
      3 N         139.1366  139.8297  165.8700 N.ar    1  UNL1       -0.2119
      4 C         139.8650  140.5894  166.9388 C.ar    1  UNL1        0.0844
      5 C         139.4983  140.3942  168.3800 C.ar    1  UNL1        0.0197
      6 C         140.2267  141.1539  169.4488 C.ar    1  UNL1        0.0082
      7 C         141.3219  142.1088  169.0762 C.ar    1  UNL1        0.0347
      8 BR        142.0504  142.8685  170.1450 Br      1  UNL1       -0.0490
      9 C         141.6887  142.3039  167.6349 C.ar    1  UNL1        0.0082
     10 C         140.9602  141.5442  166.5662 C.ar    1  UNL1        0.0181
     11 C         141.3270  141.7394  165.1248 C.ar    1  UNL1        0.0023
     12 C         140.5985  140.9797  164.0561 C.ar    1  UNL1        0.0379
     13 C         138.8842  137.7705  163.2951 C.3     1  UNL1        0.2542
     14 O         138.7748  139.2652  163.3599 O.3     1  UNL1       -0.4563
     15 C         140.8298  142.5285  161.9830 C.ar    1  UNL1        0.0131
     16 C         141.3849  142.9397  160.6515 C.ar    1  UNL1       -0.0015
     17 C         141.0136  144.3741  160.4174 C.ar    1  UNL1       -0.0197
     18 C         141.3652  145.1899  159.2088 C.3     1  UNL1        0.0312
     19 C         140.2290  144.8493  161.6043 C.ar    1  UNL1        0.0034
     20 C         139.6582  146.2239  161.7908 C.3     1  UNL1        0.0378
     21 S         140.1154  143.7087  162.5718 S.2     1  UNL1       -0.0955
     22 C         141.4674  140.0162  161.8051 C.3     1  UNL1        0.1164
     23 O         140.2190  140.0556  160.9744 O.3     1  UNL1       -0.3820
     24 H         140.2941  139.4176  160.2476 H       1  UNL1        0.2107
     25 C         142.7158  139.9769  162.6358 C.ar    1  UNL1        0.0046
     26 C         142.8827  138.9224  163.6894 C.ar    1  UNL1       -0.0019
     27 C         144.1311  138.8830  164.5200 C.ar    1  UNL1        0.0021
     28 C         145.2126  139.8982  164.2971 C.ar    1  UNL1        0.0296
     29 C         145.0457  140.9527  163.2435 C.ar    1  UNL1        0.1399
     30 F         146.1272  141.9680  163.0206 F       1  UNL1       -0.2042
     31 C         143.7973  140.9921  162.4129 C.ar    1  UNL1        0.0276
     32 C         141.9696  138.8576  160.9955 C.3     1  UNL1        0.0491
     33 C         141.7233  138.8133  159.5166 C.3     1  UNL1        0.0750
     34 N         142.2588  139.9017  158.6341 N.3     1  UNL1       -0.2702
     35 C         143.6957  140.3178  158.7444 C.3     1  UNL1        0.0897
     36 C         141.3575  140.5739  157.6414 C.3     1  UNL1        0.0897
@<TRIPOS>BOND
     1    13    14    1
     2    14     2    1
     3     2     3   ar
     4     3     4   ar
     5     4     5   ar
     6     5     6   ar
     7     6     7   ar
     8     7     8    1
     9     7     9   ar
    10     9    10   ar
    11    10    11   ar
    12    11    12   ar
    13     1    12    1
    14     1    15    1
    15    15    16   ar
    16    16    17   ar
    17    17    18    1
    18    17    19   ar
    19    19    20    1
    20    19    21   ar
    21     1    22    1
    22    22    23    1
    23    22    32    1
    24    32    33    1
    25    33    34    1
    26    34    35    1
    27    34    36    1
    28    22    25    1
    29    25    26   ar
    30    26    27   ar
    31    27    28   ar
    32    28    29   ar
    33    29    30    1
    34    29    31   ar
    35    12     2   ar
    36    21    15   ar
    37    31    25   ar
    38    10     4   ar
    39    23    24    1
@<TRIPOS>MOLECULE
*****
 36 39 0 0 0
SMALL
GASTEIGER

@<TRIPOS>ATOM
      1 C         140.2030  141.0119  164.0658 C.3     1  UNL1        0.0837
      2 C         142.0684  139.2906  163.5112 C.ar    1  UNL1        0.2211
      3 N         142.7836  138.4255  162.5162 N.ar    1  UNL1       -0.2119
      4 C         142.3485  138.4165  161.0807 C.ar    1  UNL1        0.0844
      5 C         143.0637  137.5513  160.0857 C.ar    1  UNL1        0.0197
      6 C         142.6286  137.5424  158.6502 C.ar    1  UNL1        0.0082
      7 C         141.4784  138.3985  158.2098 C.ar    1  UNL1        0.0347
      8 BR        141.0433  138.3895  156.7742 Br      1  UNL1       -0.0490
      9 C         140.7632  139.2636  159.2048 C.ar    1  UNL1        0.0082
     10 C         141.1983  139.2726  160.6402 C.ar    1  UNL1        0.0181
     11 C         140.4831  140.1378  161.6353 C.ar    1  UNL1        0.0023
     12 C         140.9182  140.1468  163.0708 C.ar    1  UNL1        0.0379
     13 C         143.9483  139.0951  165.2939 C.3     1  UNL1        0.2542
     14 O         142.5035  139.2997  164.9468 O.3     1  UNL1       -0.4563
     15 C         139.5975  140.3993  165.2938 C.ar    1  UNL1        0.0131
     16 C         139.8941  140.7892  166.7116 C.ar    1  UNL1       -0.0015
     17 C         139.0689  139.9202  167.6137 C.ar    1  UNL1       -0.0197
     18 C         139.0531  139.9695  169.1128 C.3     1  UNL1        0.0312
     19 C         138.2623  138.9931  166.7534 C.ar    1  UNL1        0.0034
     20 C         137.2982  137.9526  167.2412 C.3     1  UNL1        0.0378
     21 S         138.5890  139.2893  165.3197 S.2     1  UNL1       -0.0955
     22 C         140.0934  142.4897  163.8328 C.3     1  UNL1        0.1164
     23 O         138.6281  142.3366  163.5510 O.3     1  UNL1       -0.3820
     24 H         138.2279  143.2126  163.4354 H       1  UNL1        0.2107
     25 C         141.5588  142.6428  164.1147 C.ar    1  UNL1        0.0046
     26 C         142.5306  142.7780  162.9801 C.ar    1  UNL1       -0.0019
     27 C         143.9959  142.9311  163.2619 C.ar    1  UNL1        0.0021
     28 C         144.4894  142.9489  164.6783 C.ar    1  UNL1        0.0296
     29 C         143.5176  142.8137  165.8128 C.ar    1  UNL1        0.1399
     30 F         144.0110  142.8316  167.2293 F       1  UNL1       -0.2042
     31 C         142.0522  142.6606  165.5310 C.ar    1  UNL1        0.0276
     32 C         139.9839  143.9674  163.5999 C.3     1  UNL1        0.0491
     33 C         139.1143  144.4900  162.4951 C.3     1  UNL1        0.0750
     34 N         139.5638  144.3753  161.0686 N.3     1  UNL1       -0.2702
     35 C         139.1427  143.1966  160.2420 C.3     1  UNL1        0.0897
     36 C         140.4345  145.4392  160.4688 C.3     1  UNL1        0.0897
@<TRIPOS>BOND
     1    13    14    1
     2    14     2    1
     3     2     3   ar
     4     3     4   ar
     5     4     5   ar
     6     5     6   ar
     7     6     7   ar
     8     7     8    1
     9     7     9   ar
    10     9    10   ar
    11    10    11   ar
    12    11    12   ar
    13     1    12    1
    14     1    15    1
    15    15    16   ar
    16    16    17   ar
    17    17    18    1
    18    17    19   ar
    19    19    20    1
    20    19    21   ar
    21     1    22    1
    22    22    23    1
    23    22    32    1
    24    32    33    1
    25    33    34    1
    26    34    35    1
    27    34    36    1
    28    22    25    1
    29    25    26   ar
    30    26    27   ar
    31    27    28   ar
    32    28    29   ar
    33    29    30    1
    34    29    31   ar
    35    12     2   ar
    36    21    15   ar
    37    31    25   ar
    38    10     4   ar
    39    23    24    1
@<TRIPOS>MOLECULE
*****
 36 39 0 0 0
SMALL
GASTEIGER

@<TRIPOS>ATOM
      1 C         140.0437  140.2683  164.1789 C.3     1  UNL1        0.0837
      2 C         139.0413  139.4967  166.4482 C.ar    1  UNL1        0.2211
      3 N         138.9918  139.5879  167.9446 N.ar    1  UNL1       -0.2119
      4 C         139.8953  140.5420  168.6682 C.ar    1  UNL1        0.0844
      5 C         139.8458  140.6332  170.1645 C.ar    1  UNL1        0.0197
      6 C         140.7493  141.5872  170.8880 C.ar    1  UNL1        0.0082
      7 C         141.7022  142.4501  170.1151 C.ar    1  UNL1        0.0347
      8 BR        142.6057  143.4042  170.8387 Br      1  UNL1       -0.0490
      9 C         141.7517  142.3589  168.6188 C.ar    1  UNL1        0.0082
     10 C         140.8482  141.4049  167.8953 C.ar    1  UNL1        0.0181
     11 C         140.8977  141.3136  166.3988 C.ar    1  UNL1        0.0023
     12 C         139.9942  140.3596  165.6753 C.ar    1  UNL1        0.0379
     13 C         137.8747  137.1803  166.2947 C.3     1  UNL1        0.2542
     14 O         138.1378  138.5426  165.7246 O.3     1  UNL1       -0.4563
     15 C         141.3471  140.0009  163.4865 C.ar    1  UNL1        0.0131
     16 C         141.7265  138.7329  162.7805 C.ar    1  UNL1       -0.0015
     17 C         143.1139  138.9027  162.2362 C.ar    1  UNL1       -0.0197
     18 C         143.8875  137.8793  161.4588 C.3     1  UNL1        0.0312
     19 C         143.5919  140.2757  162.6057 C.ar    1  UNL1        0.0034
     20 C         144.9274  140.8664  162.2627 C.3     1  UNL1        0.0378
     21 S         142.5000  140.9544  163.3784 S.2     1  UNL1       -0.0955
     22 C         138.7896  140.4446  163.3749 C.3     1  UNL1        0.1164
     23 O         138.7442  138.9668  163.1218 O.3     1  UNL1       -0.3820
     24 H         137.9246  138.7441  162.6533 H       1  UNL1        0.2107
     25 C         138.8351  141.9224  163.6280 C.ar    1  UNL1        0.0046
     26 C         137.8685  142.5489  164.5887 C.ar    1  UNL1       -0.0019
     27 C         137.9140  144.0267  164.8417 C.ar    1  UNL1        0.0021
     28 C         138.9261  144.8780  164.1341 C.ar    1  UNL1        0.0296
     29 C         139.8928  144.2515  163.1734 C.ar    1  UNL1        0.1399
     30 F         140.9050  145.1028  162.4657 F       1  UNL1       -0.2042
     31 C         139.8473  142.7737  162.9203 C.ar    1  UNL1        0.0276
     32 C         137.5356  140.6209  162.5709 C.3     1  UNL1        0.0491
     33 C         137.4127  139.9764  161.2221 C.3     1  UNL1        0.0750
     34 N         138.4622  140.2165  160.1776 N.3     1  UNL1       -0.2702
     35 C         138.6496  141.5900  159.6047 C.3     1  UNL1        0.0897
     36 C         139.3242  139.0832  159.7061 C.3     1  UNL1        0.0897
@<TRIPOS>BOND
     1    13    14    1
     2    14     2    1
     3     2     3   ar
     4     3     4   ar
     5     4     5   ar
     6     5     6   ar
     7     6     7   ar
     8     7     8    1
     9     7     9   ar
    10     9    10   ar
    11    10    11   ar
    12    11    12   ar
    13     1    12    1
    14     1    15    1
    15    15    16   ar
    16    16    17   ar
    17    17    18    1
    18    17    19   ar
    19    19    20    1
    20    19    21   ar
    21     1    22    1
    22    22    23    1
    23    22    32    1
    24    32    33    1
    25    33    34    1
    26    34    35    1
    27    34    36    1
    28    22    25    1
    29    25    26   ar
    30    26    27   ar
    31    27    28   ar
    32    28    29   ar
    33    29    30    1
    34    29    31   ar
    35    12     2   ar
    36    21    15   ar
    37    31    25   ar
    38    10     4   ar
    39    23    24    1
