@<TRIPOS>MOLECULE
*****
 29 31 0 0 0
SMALL
GASTEIGER

@<TRIPOS>ATOM
      1 C         138.6409  143.5604  162.7272 C.3     1  UNL1        0.1000
      2 C         137.9516  142.5141  163.5518 C.3     1  UNL1        0.0331
      3 C         137.5675  141.2034  162.9317 C.3     1  UNL1        0.0732
      4 N         137.8726  140.9390  161.4871 N.3     1  UNL1       -0.2723
      5 C         138.5619  141.9854  160.6625 C.3     1  UNL1        0.0732
      6 C         138.9460  143.2961  161.2825 C.3     1  UNL1        0.0331
      7 N         139.9675  146.1490  161.9928 N.1     1  UNL1       -0.1959
      8 C         139.3042  144.8548  162.3600 C.1     1  UNL1        0.0729
      9 C         138.5661  144.2743  164.0443 C.3     1  UNL1        0.1037
     10 N         138.9119  143.5491  165.3111 N.am    1  UNL1       -0.2998
     11 C         140.3486  143.3143  165.6725 C.2     1  UNL1        0.2459
     12 O         141.4395  143.8045  164.7672 O.2     1  UNL1       -0.2701
     13 H         138.1959  143.2274  165.9053 H       1  UNL1        0.1498
     14 C         140.6944  142.5891  166.9393 C.ar    1  UNL1        0.0550
     15 C         140.1778  143.0902  168.2553 C.ar    1  UNL1        0.0160
     16 C         140.5236  142.3651  169.5219 C.ar    1  UNL1        0.0587
     17 CL        140.0069  142.8662  170.8380 Cl      1  UNL1       -0.0822
     18 C         141.3861  141.1389  169.4726 C.ar    1  UNL1        0.0228
     19 C         141.9028  140.6378  168.1567 C.ar    1  UNL1        0.0587
     20 CL        142.7653  139.4116  168.1074 Cl      1  UNL1       -0.0822
     21 C         141.5570  141.3629  166.8900 C.ar    1  UNL1        0.0160
     22 C         137.4885  139.6283  160.8670 C.3     1  UNL1        0.0768
     23 C         137.6189  138.3589  161.6554 C.3     1  UNL1        0.0437
     24 C         138.8894  138.0628  162.3957 C.ar    1  UNL1       -0.0208
     25 C         138.8567  137.8251  163.8764 C.ar    1  UNL1       -0.0042
     26 C         140.1272  137.5291  164.6167 C.ar    1  UNL1       -0.0003
     27 C         141.4305  137.4708  163.8763 C.ar    1  UNL1       -0.0000
     28 C         141.4632  137.7085  162.3957 C.ar    1  UNL1       -0.0003
     29 C         140.1926  138.0045  161.6553 C.ar    1  UNL1       -0.0042
@<TRIPOS>BOND
     1     7     8    3
     2     8     1    1
     3     1     9    1
     4     9    10    1
     5    10    11   am
     6    11    12    2
     7    11    14    1
     8    14    15   ar
     9    15    16   ar
    10    16    17    1
    11    16    18   ar
    12    18    19   ar
    13    19    20    1
    14    19    21   ar
    15     1     2    1
    16     2     3    1
    17     3     4    1
    18     4    22    1
    19    22    23    1
    20    23    24    1
    21    24    25   ar
    22    25    26   ar
    23    26    27   ar
    24    27    28   ar
    25    28    29   ar
    26     4     5    1
    27     5     6    1
    28     6     1    1
    29    21    14   ar
    30    29    24   ar
    31    10    13    1
@<TRIPOS>MOLECULE
*****
 29 31 0 0 0
SMALL
GASTEIGER

@<TRIPOS>ATOM
      1 C         138.6142  143.5345  162.7379 C.3     1  UNL1        0.1000
      2 C         137.9571  142.4795  163.5775 C.3     1  UNL1        0.0331
      3 C         137.5813  141.1617  162.9675 C.3     1  UNL1        0.0732
      4 N         137.8626  140.8990  161.5177 N.3     1  UNL1       -0.2723
      5 C         138.5197  141.9540  160.6780 C.3     1  UNL1        0.0732
      6 C         138.8955  143.2718  161.2881 C.3     1  UNL1        0.0331
      7 N         139.8863  146.1416  161.9732 N.1     1  UNL1       -0.1959
      8 C         139.2503  144.8381  162.3555 C.1     1  UNL1        0.0729
      9 C         138.5538  144.2500  164.0548 C.3     1  UNL1        0.1037
     10 N         138.9017  143.5229  165.3200 N.am    1  UNL1       -0.2998
     11 C         140.3391  143.2973  165.6843 C.2     1  UNL1        0.2459
     12 O         141.4288  143.7986  164.7836 O.2     1  UNL1       -0.2701
     13 H         138.1865  143.1939  165.9112 H       1  UNL1        0.1498
     14 C         140.6870  142.5702  166.9494 C.ar    1  UNL1        0.0550
     15 C         141.5409  141.3382  166.8959 C.ar    1  UNL1        0.0160
     16 C         141.8887  140.6112  168.1610 C.ar    1  UNL1        0.0587
     17 CL        142.7426  139.3791  168.1075 Cl      1  UNL1       -0.0822
     18 C         141.3826  141.1163  169.4796 C.ar    1  UNL1        0.0228
     19 C         140.5288  142.3484  169.5332 C.ar    1  UNL1        0.0587
     20 CL        140.0227  142.8535  170.8518 Cl      1  UNL1       -0.0822
     21 C         140.1810  143.0753  168.2681 C.ar    1  UNL1        0.0160
     22 C         137.4869  139.5812  160.9076 C.3     1  UNL1        0.0768
     23 C         137.6449  138.3164  161.6983 C.3     1  UNL1        0.0437
     24 C         138.9262  138.0437  162.4289 C.ar    1  UNL1       -0.0208
     25 C         138.9113  137.8216  163.9122 C.ar    1  UNL1       -0.0042
     26 C         140.1927  137.5489  164.6428 C.ar    1  UNL1       -0.0003
     27 C         141.4891  137.4982  163.8898 C.ar    1  UNL1       -0.0000
     28 C         141.5041  137.7203  162.4066 C.ar    1  UNL1       -0.0003
     29 C         140.2226  137.9930  161.6759 C.ar    1  UNL1       -0.0042
@<TRIPOS>BOND
     1     7     8    3
     2     8     1    1
     3     1     9    1
     4     9    10    1
     5    10    11   am
     6    11    12    2
     7    11    14    1
     8    14    15   ar
     9    15    16   ar
    10    16    17    1
    11    16    18   ar
    12    18    19   ar
    13    19    20    1
    14    19    21   ar
    15     1     2    1
    16     2     3    1
    17     3     4    1
    18     4    22    1
    19    22    23    1
    20    23    24    1
    21    24    25   ar
    22    25    26   ar
    23    26    27   ar
    24    27    28   ar
    25    28    29   ar
    26     4     5    1
    27     5     6    1
    28     6     1    1
    29    21    14   ar
    30    29    24   ar
    31    10    13    1
@<TRIPOS>MOLECULE
*****
 29 31 0 0 0
SMALL
GASTEIGER

@<TRIPOS>ATOM
      1 C         144.1610  142.2590  163.4770 C.3     1  UNL1        0.1000
      2 C         144.4074  141.0572  164.3400 C.3     1  UNL1        0.0331
      3 C         144.2816  139.6793  163.7607 C.3     1  UNL1        0.0732
      4 N         143.9095  139.5033  162.3182 N.3     1  UNL1       -0.2723
      5 C         143.6631  140.7051  161.4552 C.3     1  UNL1        0.0732
      6 C         143.7889  142.0830  162.0346 C.3     1  UNL1        0.0331
      7 N         143.8945  145.1314  162.6534 N.1     1  UNL1       -0.1959
      8 C         144.0278  143.6953  163.0652 C.1     1  UNL1        0.0729
      9 C         144.4869  142.9338  164.7764 C.3     1  UNL1        0.1037
     10 N         143.9886  142.3553  166.0676 N.am    1  UNL1       -0.2998
     11 C         142.5413  142.4860  166.4389 C.2     1  UNL1        0.2459
     12 O         141.5921  143.1952  165.5192 O.2     1  UNL1       -0.2701
     13 H         144.6116  141.8898  166.6713 H       1  UNL1        0.1498
     14 C         142.0430  141.9075  167.7302 C.ar    1  UNL1        0.0550
     15 C         142.5409  140.5710  168.1948 C.ar    1  UNL1        0.0160
     16 C         142.0426  139.9925  169.4859 C.ar    1  UNL1        0.0587
     17 CL        142.5404  138.6560  169.9506 Cl      1  UNL1       -0.0822
     18 C         141.0465  140.7506  170.3124 C.ar    1  UNL1        0.0228
     19 C         140.5487  142.0871  169.8478 C.ar    1  UNL1        0.0587
     20 CL        139.5526  142.8451  170.6744 Cl      1  UNL1       -0.0822
     21 C         141.0469  142.6655  168.5567 C.ar    1  UNL1        0.0160
     22 C         143.7837  138.1255  161.7389 C.3     1  UNL1        0.0768
     23 C         142.4414  137.6121  161.3094 C.3     1  UNL1        0.0437
     24 C         141.2798  137.6649  162.2569 C.ar    1  UNL1       -0.0208
     25 C         139.9125  138.0142  161.7486 C.ar    1  UNL1       -0.0042
     26 C         138.7509  138.0670  162.6962 C.ar    1  UNL1       -0.0003
     27 C         138.9567  137.7705  164.1522 C.ar    1  UNL1       -0.0000
     28 C         140.3239  137.4213  164.6605 C.ar    1  UNL1       -0.0003
     29 C         141.4856  137.3684  163.7129 C.ar    1  UNL1       -0.0042
@<TRIPOS>BOND
     1     7     8    3
     2     8     1    1
     3     1     9    1
     4     9    10    1
     5    10    11   am
     6    11    12    2
     7    11    14    1
     8    14    15   ar
     9    15    16   ar
    10    16    17    1
    11    16    18   ar
    12    18    19   ar
    13    19    20    1
    14    19    21   ar
    15     1     2    1
    16     2     3    1
    17     3     4    1
    18     4    22    1
    19    22    23    1
    20    23    24    1
    21    24    25   ar
    22    25    26   ar
    23    26    27   ar
    24    27    28   ar
    25    28    29   ar
    26     4     5    1
    27     5     6    1
    28     6     1    1
    29    21    14   ar
    30    29    24   ar
    31    10    13    1
@<TRIPOS>MOLECULE
*****
 29 31 0 0 0
SMALL
GASTEIGER

@<TRIPOS>ATOM
      1 C         141.2186  138.2173  158.5929 C.3     1  UNL1        0.1000
      2 C         142.5647  137.8052  159.1106 C.3     1  UNL1        0.0331
      3 C         142.8378  137.8201  160.5855 C.3     1  UNL1        0.0732
      4 N         141.7646  138.2471  161.5426 N.3     1  UNL1       -0.2723
      5 C         140.4185  138.6593  161.0249 C.3     1  UNL1        0.0732
      6 C         140.1455  138.6444  159.5501 C.3     1  UNL1        0.0331
      7 N         139.0046  138.8173  156.6594 N.1     1  UNL1       -0.1959
      8 C         140.1116  138.5173  157.6262 C.1     1  UNL1        0.0729
      9 C         141.9073  137.8945  157.3001 C.3     1  UNL1        0.1037
     10 N         142.6689  136.6102  157.1563 N.am    1  UNL1       -0.2998
     11 C         142.1546  135.5306  156.2508 C.2     1  UNL1        0.2459
     12 O         140.8787  135.7352  155.4891 O.2     1  UNL1       -0.2701
     13 H         143.5063  136.4759  157.6562 H       1  UNL1        0.1498
     14 C         142.9162  134.2463  156.1070 C.ar    1  UNL1        0.0550
     15 C         143.8533  133.8046  157.1917 C.ar    1  UNL1        0.0160
     16 C         144.6149  132.5204  157.0478 C.ar    1  UNL1        0.0587
     17 CL        145.5521  132.0786  158.1326 Cl      1  UNL1       -0.0822
     18 C         144.4393  131.6779  155.8193 C.ar    1  UNL1        0.0228
     19 C         143.5022  132.1196  154.7346 C.ar    1  UNL1        0.0587
     20 CL        143.3266  131.2770  153.5060 Cl      1  UNL1       -0.0822
     21 C         142.7407  133.4038  154.8784 C.ar    1  UNL1        0.0160
     22 C         142.0377  138.2620  163.0175 C.3     1  UNL1        0.0768
     23 C         141.2041  137.4264  163.9430 C.3     1  UNL1        0.0437
     24 C         140.3681  138.0848  165.0002 C.ar    1  UNL1       -0.0208
     25 C         138.9470  137.6528  165.2098 C.ar    1  UNL1       -0.0042
     26 C         138.1110  138.3112  166.2669 C.ar    1  UNL1       -0.0003
     27 C         138.6962  139.4018  167.1145 C.ar    1  UNL1       -0.0000
     28 C         140.1172  139.8338  166.9050 C.ar    1  UNL1       -0.0003
     29 C         140.9532  139.1753  165.8478 C.ar    1  UNL1       -0.0042
@<TRIPOS>BOND
     1     7     8    3
     2     8     1    1
     3     1     9    1
     4     9    10    1
     5    10    11   am
     6    11    12    2
     7    11    14    1
     8    14    15   ar
     9    15    16   ar
    10    16    17    1
    11    16    18   ar
    12    18    19   ar
    13    19    20    1
    14    19    21   ar
    15     1     2    1
    16     2     3    1
    17     3     4    1
    18     4    22    1
    19    22    23    1
    20    23    24    1
    21    24    25   ar
    22    25    26   ar
    23    26    27   ar
    24    27    28   ar
    25    28    29   ar
    26     4     5    1
    27     5     6    1
    28     6     1    1
    29    21    14   ar
    30    29    24   ar
    31    10    13    1
@<TRIPOS>MOLECULE
*****
 29 31 0 0 0
SMALL
GASTEIGER

@<TRIPOS>ATOM
      1 C         141.9001  144.2833  164.0031 C.3     1  UNL1        0.1000
      2 C         140.4506  144.3303  164.3858 C.3     1  UNL1        0.0331
      3 C         139.9373  143.4531  165.4890 C.3     1  UNL1        0.0732
      4 N         140.8737  142.5289  166.2096 N.3     1  UNL1       -0.2723
      5 C         142.3233  142.4819  165.8269 C.3     1  UNL1        0.0732
      6 C         142.8365  143.3591  164.7237 C.3     1  UNL1        0.0331
      7 N         144.4574  144.9064  162.5636 N.1     1  UNL1       -0.1959
      8 C         143.1788  144.5949  163.2833 C.1     1  UNL1        0.0729
      9 C         141.4078  145.3156  163.0327 C.3     1  UNL1        0.1037
     10 N         141.7976  145.2319  161.5866 N.am    1  UNL1       -0.2998
     11 C         140.7406  145.0894  160.5319 C.2     1  UNL1        0.2459
     12 O         139.2938  145.0307  160.9232 O.2     1  UNL1       -0.2701
     13 H         142.7473  145.2705  161.3297 H       1  UNL1        0.1498
     14 C         141.1304  145.0057  159.0858 C.ar    1  UNL1        0.0550
     15 C         142.1700  144.0182  158.6452 C.ar    1  UNL1        0.0160
     16 C         142.5598  143.9345  157.1992 C.ar    1  UNL1        0.0587
     17 CL        143.5994  142.9470  156.7586 Cl      1  UNL1       -0.0822
     18 C         141.9100  144.8383  156.1938 C.ar    1  UNL1        0.0228
     19 C         140.8704  145.8258  156.6343 C.ar    1  UNL1        0.0587
     20 CL        140.2206  146.7296  155.6289 Cl      1  UNL1       -0.0822
     21 C         140.4806  145.9095  158.0804 C.ar    1  UNL1        0.0160
     22 C         140.3605  141.6517  167.3128 C.3     1  UNL1        0.0768
     23 C         139.5203  140.4523  166.9880 C.3     1  UNL1        0.0437
     24 C         140.0463  139.3967  166.0612 C.ar    1  UNL1       -0.0208
     25 C         139.1082  138.6667  165.1464 C.ar    1  UNL1       -0.0042
     26 C         139.6342  137.6111  164.2196 C.ar    1  UNL1       -0.0003
     27 C         141.0985  137.2856  164.2076 C.ar    1  UNL1       -0.0000
     28 C         142.0366  138.0156  165.1224 C.ar    1  UNL1       -0.0003
     29 C         141.5105  139.0712  166.0493 C.ar    1  UNL1       -0.0042
@<TRIPOS>BOND
     1     7     8    3
     2     8     1    1
     3     1     9    1
     4     9    10    1
     5    10    11   am
     6    11    12    2
     7    11    14    1
     8    14    15   ar
     9    15    16   ar
    10    16    17    1
    11    16    18   ar
    12    18    19   ar
    13    19    20    1
    14    19    21   ar
    15     1     2    1
    16     2     3    1
    17     3     4    1
    18     4    22    1
    19    22    23    1
    20    23    24    1
    21    24    25   ar
    22    25    26   ar
    23    26    27   ar
    24    27    28   ar
    25    28    29   ar
    26     4     5    1
    27     5     6    1
    28     6     1    1
    29    21    14   ar
    30    29    24   ar
    31    10    13    1
@<TRIPOS>MOLECULE
*****
 29 31 0 0 0
SMALL
GASTEIGER

@<TRIPOS>ATOM
      1 C         140.5821  144.5526  163.4347 C.3     1  UNL1        0.1000
      2 C         142.0526  144.8310  163.5358 C.3     1  UNL1        0.0331
      3 C         142.9116  144.0040  164.4458 C.3     1  UNL1        0.0732
      4 N         142.3002  142.8986  165.2547 N.3     1  UNL1       -0.2723
      5 C         140.8298  142.6202  165.1536 C.3     1  UNL1        0.0732
      6 C         139.9707  143.4472  164.2436 C.3     1  UNL1        0.0331
      7 N         137.7208  144.7925  162.5658 N.1     1  UNL1       -0.1959
      8 C         139.1514  144.6726  163.0002 C.1     1  UNL1        0.0729
      9 C         140.6967  145.6996  162.4750 C.3     1  UNL1        0.1037
     10 N         140.1079  145.5886  161.0998 N.am    1  UNL1       -0.2998
     11 C         140.9307  145.0356  159.9741 C.2     1  UNL1        0.2459
     12 O         142.3422  144.5937  160.2235 O.2     1  UNL1       -0.2701
     13 H         139.1815  145.8787  160.9361 H       1  UNL1        0.1498
     14 C         140.3419  144.9246  158.5989 C.ar    1  UNL1        0.0550
     15 C         139.8498  143.5989  158.0985 C.ar    1  UNL1        0.0160
     16 C         139.2611  143.4880  156.7233 C.ar    1  UNL1        0.0587
     17 CL        138.7690  142.1623  156.2229 Cl      1  UNL1       -0.0822
     18 C         139.1644  144.7027  155.8486 C.ar    1  UNL1        0.0228
     19 C         139.6565  146.0283  156.3490 C.ar    1  UNL1        0.0587
     20 CL        139.5598  147.2431  155.4743 Cl      1  UNL1       -0.0822
     21 C         140.2452  146.1393  157.7241 C.ar    1  UNL1        0.0160
     22 C         143.1592  142.0716  166.1647 C.3     1  UNL1        0.0768
     23 C         143.0816  142.2651  167.6501 C.3     1  UNL1        0.0437
     24 C         141.8445  141.8602  168.3956 C.ar    1  UNL1       -0.0208
     25 C         141.1764  142.8310  169.3234 C.ar    1  UNL1       -0.0042
     26 C         139.9394  142.4261  170.0689 C.ar    1  UNL1       -0.0003
     27 C         139.3705  141.0502  169.8865 C.ar    1  UNL1       -0.0000
     28 C         140.0386  140.0793  168.9588 C.ar    1  UNL1       -0.0003
     29 C         141.2757  140.4842  168.2132 C.ar    1  UNL1       -0.0042
@<TRIPOS>BOND
     1     7     8    3
     2     8     1    1
     3     1     9    1
     4     9    10    1
     5    10    11   am
     6    11    12    2
     7    11    14    1
     8    14    15   ar
     9    15    16   ar
    10    16    17    1
    11    16    18   ar
    12    18    19   ar
    13    19    20    1
    14    19    21   ar
    15     1     2    1
    16     2     3    1
    17     3     4    1
    18     4    22    1
    19    22    23    1
    20    23    24    1
    21    24    25   ar
    22    25    26   ar
    23    26    27   ar
    24    27    28   ar
    25    28    29   ar
    26     4     5    1
    27     5     6    1
    28     6     1    1
    29    21    14   ar
    30    29    24   ar
    31    10    13    1
@<TRIPOS>MOLECULE
*****
 29 31 0 0 0
SMALL
GASTEIGER

@<TRIPOS>ATOM
      1 C         141.1926  138.2096  158.5564 C.3     1  UNL1        0.1000
      2 C         142.5404  137.7557  159.0333 C.3     1  UNL1        0.0331
      3 C         142.8269  137.6724  160.5033 C.3     1  UNL1        0.0732
      4 N         141.7655  138.0430  161.4964 N.3     1  UNL1       -0.2723
      5 C         140.4178  138.4968  161.0195 C.3     1  UNL1        0.0732
      6 C         140.1313  138.5802  159.5495 C.3     1  UNL1        0.0331
      7 N         138.9656  138.9491  156.6873 N.1     1  UNL1       -0.1959
      8 C         140.0791  138.5794  157.6218 C.1     1  UNL1        0.0729
      9 C         141.8672  137.9675  157.2387 C.3     1  UNL1        0.1037
     10 N         141.8812  136.5899  156.6452 N.am    1  UNL1       -0.2998
     11 C         143.1172  136.0781  155.9668 C.2     1  UNL1        0.2459
     12 O         144.3393  136.9437  155.8819 O.2     1  UNL1       -0.2701
     13 H         141.0791  136.0217  156.7009 H       1  UNL1        0.1498
     14 C         143.1312  134.7005  155.3733 C.ar    1  UNL1        0.0550
     15 C         142.3263  134.4061  154.1422 C.ar    1  UNL1        0.0160
     16 C         142.3403  133.0286  153.5487 C.ar    1  UNL1        0.0587
     17 CL        141.5355  132.7341  152.3176 Cl      1  UNL1       -0.0822
     18 C         143.1591  131.9455  154.1863 C.ar    1  UNL1        0.0228
     19 C         143.9640  132.2399  155.4174 C.ar    1  UNL1        0.0587
     20 CL        144.7828  131.1569  156.0549 Cl      1  UNL1       -0.0822
     21 C         143.9500  133.6174  156.0108 C.ar    1  UNL1        0.0160
     22 C         142.0520  137.9597  162.9664 C.3     1  UNL1        0.0768
     23 C         141.1108  137.2239  163.8735 C.3     1  UNL1        0.0437
     24 C         140.3391  137.9718  164.9198 C.ar    1  UNL1       -0.0208
     25 C         138.9044  137.6240  165.1856 C.ar    1  UNL1       -0.0042
     26 C         138.1327  138.3719  166.2320 C.ar    1  UNL1       -0.0003
     27 C         138.7957  139.4679  167.0126 C.ar    1  UNL1       -0.0000
     28 C         140.2303  139.8158  166.7469 C.ar    1  UNL1       -0.0003
     29 C         141.0021  139.0678  165.7005 C.ar    1  UNL1       -0.0042
@<TRIPOS>BOND
     1     7     8    3
     2     8     1    1
     3     1     9    1
     4     9    10    1
     5    10    11   am
     6    11    12    2
     7    11    14    1
     8    14    15   ar
     9    15    16   ar
    10    16    17    1
    11    16    18   ar
    12    18    19   ar
    13    19    20    1
    14    19    21   ar
    15     1     2    1
    16     2     3    1
    17     3     4    1
    18     4    22    1
    19    22    23    1
    20    23    24    1
    21    24    25   ar
    22    25    26   ar
    23    26    27   ar
    24    27    28   ar
    25    28    29   ar
    26     4     5    1
    27     5     6    1
    28     6     1    1
    29    21    14   ar
    30    29    24   ar
    31    10    13    1
@<TRIPOS>MOLECULE
*****
 29 31 0 0 0
SMALL
GASTEIGER

@<TRIPOS>ATOM
      1 C         143.2579  141.2897  162.9526 C.3     1  UNL1        0.1000
      2 C         143.2404  142.6297  163.6263 C.3     1  UNL1        0.0331
      3 C         142.5904  143.8005  162.9505 C.3     1  UNL1        0.0732
      4 N         141.9579  143.6312  161.6010 N.3     1  UNL1       -0.2723
      5 C         141.9753  142.2912  160.9273 C.3     1  UNL1        0.0732
      6 C         142.6253  141.1204  161.6031 C.3     1  UNL1        0.0331
      7 N         143.7972  138.3756  162.4864 N.1     1  UNL1       -0.1959
      8 C         143.5276  139.8326  162.7195 C.1     1  UNL1        0.0729
      9 C         143.9841  140.9530  164.2212 C.3     1  UNL1        0.1037
     10 N         143.4411  141.4141  165.5413 N.am    1  UNL1       -0.2998
     11 C         142.6159  140.4832  166.3793 C.2     1  UNL1        0.2459
     12 O         142.3337  139.0910  165.8974 O.2     1  UNL1       -0.2701
     13 H         143.6263  142.3278  165.8576 H       1  UNL1        0.1498
     14 C         142.0730  140.9443  167.6994 C.ar    1  UNL1        0.0550
     15 C         142.8632  141.9006  168.5426 C.ar    1  UNL1        0.0160
     16 C         142.3202  142.3617  169.8627 C.ar    1  UNL1        0.0587
     17 CL        143.1104  143.3180  170.7059 Cl      1  UNL1       -0.0822
     18 C         140.9870  141.8665  170.3395 C.ar    1  UNL1        0.0228
     19 C         140.1968  140.9103  169.4963 C.ar    1  UNL1        0.0587
     20 CL        138.8636  140.4151  169.9731 Cl      1  UNL1       -0.0822
     21 C         140.7398  140.4492  168.1763 C.ar    1  UNL1        0.0160
     22 C         141.3079  144.8020  160.9252 C.3     1  UNL1        0.0768
     23 C         140.0206  145.3565  161.4593 C.3     1  UNL1        0.0437
     24 C         139.2249  144.5735  162.4611 C.ar    1  UNL1       -0.0208
     25 C         138.4172  143.3899  162.0176 C.ar    1  UNL1       -0.0042
     26 C         137.6216  142.6069  163.0195 C.ar    1  UNL1       -0.0003
     27 C         137.6337  143.0074  164.4650 C.ar    1  UNL1       -0.0000
     28 C         138.4414  144.1909  164.9086 C.ar    1  UNL1       -0.0003
     29 C         139.2371  144.9740  163.9067 C.ar    1  UNL1       -0.0042
@<TRIPOS>BOND
     1     7     8    3
     2     8     1    1
     3     1     9    1
     4     9    10    1
     5    10    11   am
     6    11    12    2
     7    11    14    1
     8    14    15   ar
     9    15    16   ar
    10    16    17    1
    11    16    18   ar
    12    18    19   ar
    13    19    20    1
    14    19    21   ar
    15     1     2    1
    16     2     3    1
    17     3     4    1
    18     4    22    1
    19    22    23    1
    20    23    24    1
    21    24    25   ar
    22    25    26   ar
    23    26    27   ar
    24    27    28   ar
    25    28    29   ar
    26     4     5    1
    27     5     6    1
    28     6     1    1
    29    21    14   ar
    30    29    24   ar
    31    10    13    1
@<TRIPOS>MOLECULE
*****
 29 31 0 0 0
SMALL
GASTEIGER

@<TRIPOS>ATOM
      1 C         141.8442  144.1931  163.9508 C.3     1  UNL1        0.1000
      2 C         140.3951  144.2944  164.3248 C.3     1  UNL1        0.0331
      3 C         139.8367  143.4183  165.4067 C.3     1  UNL1        0.0732
      4 N         140.7274  142.4408  166.1147 N.3     1  UNL1       -0.2723
      5 C         142.1765  142.3395  165.7407 C.3     1  UNL1        0.0732
      6 C         142.7349  143.2156  164.6588 C.3     1  UNL1        0.0331
      7 N         144.4364  144.7348  162.5412 N.1     1  UNL1       -0.1959
      8 C         143.1403  144.4639  163.2460 C.1     1  UNL1        0.0729
      9 C         141.4036  145.2646  162.9981 C.3     1  UNL1        0.1037
     10 N         141.7964  145.1905  161.5523 N.am    1  UNL1       -0.2998
     11 C         140.7396  145.0992  160.4917 C.2     1  UNL1        0.2459
     12 O         139.2900  145.0819  160.8769 O.2     1  UNL1       -0.2701
     13 H         142.7478  145.2018  161.2995 H       1  UNL1        0.1498
     14 C         141.1324  145.0250  159.0459 C.ar    1  UNL1        0.0550
     15 C         140.4874  145.9381  158.0458 C.ar    1  UNL1        0.0160
     16 C         140.8802  145.8639  156.6000 C.ar    1  UNL1        0.0587
     17 CL        140.2352  146.7770  155.5998 Cl      1  UNL1       -0.0822
     18 C         141.9179  144.8768  156.1545 C.ar    1  UNL1        0.0228
     19 C         142.5629  143.9638  157.1546 C.ar    1  UNL1        0.0587
     20 CL        143.6007  142.9766  156.7090 Cl      1  UNL1       -0.0822
     21 C         142.1702  144.0379  158.6003 C.ar    1  UNL1        0.0160
     22 C         140.1690  141.5647  167.1966 C.3     1  UNL1        0.0768
     23 C         140.5453  140.1139  167.2558 C.3     1  UNL1        0.0437
     24 C         140.3874  139.2479  166.0412 C.ar    1  UNL1       -0.0208
     25 C         141.5863  138.5814  165.4343 C.ar    1  UNL1       -0.0042
     26 C         141.4285  137.7154  164.2198 C.ar    1  UNL1       -0.0003
     27 C         140.0716  137.5160  163.6121 C.ar    1  UNL1       -0.0000
     28 C         138.8728  138.1825  164.2189 C.ar    1  UNL1       -0.0003
     29 C         139.0306  139.0485  165.4335 C.ar    1  UNL1       -0.0042
@<TRIPOS>BOND
     1     7     8    3
     2     8     1    1
     3     1     9    1
     4     9    10    1
     5    10    11   am
     6    11    12    2
     7    11    14    1
     8    14    15   ar
     9    15    16   ar
    10    16    17    1
    11    16    18   ar
    12    18    19   ar
    13    19    20    1
    14    19    21   ar
    15     1     2    1
    16     2     3    1
    17     3     4    1
    18     4    22    1
    19    22    23    1
    20    23    24    1
    21    24    25   ar
    22    25    26   ar
    23    26    27   ar
    24    27    28   ar
    25    28    29   ar
    26     4     5    1
    27     5     6    1
    28     6     1    1
    29    21    14   ar
    30    29    24   ar
    31    10    13    1
