@<TRIPOS>MOLECULE
*****
 34 38 0 0 0
SMALL
GASTEIGER

@<TRIPOS>ATOM
      1 C         140.3366  141.3063  165.4331 C.ar    1  UNL1        0.0906
      2 C         140.5749  141.9980  166.7426 C.ar    1  UNL1        0.1496
      3 O         139.8785  143.3258  166.6988 O.2     1  UNL1       -0.4534
      4 C         139.2098  143.4548  165.3623 C.ar    1  UNL1        0.1454
      5 C         138.3798  144.5474  164.7565 C.ar    1  UNL1        0.0406
      6 C         137.8328  144.3919  163.3685 C.ar    1  UNL1        0.0395
      7 C         138.1160  143.1438  162.5862 C.ar    1  UNL1        0.1311
      8 O         137.5690  142.9883  161.1982 O.3     1  UNL1       -0.5058
      9 C         138.9460  142.0511  163.1920 C.ar    1  UNL1        0.0308
     10 C         139.4930  142.2066  164.5800 C.ar    1  UNL1        0.0421
     11 H         137.0504  143.6709  160.8198 H       1  UNL1        0.2922
     12 C         141.3699  141.4569  167.8937 C.ar    1  UNL1        0.0346
     13 C         141.0187  140.1250  168.4875 C.ar    1  UNL1        0.0061
     14 C         141.8137  139.5839  169.6387 C.ar    1  UNL1        0.0364
     15 C         142.9600  140.3747  170.1960 C.ar    1  UNL1        0.1296
     16 O         143.7550  139.8336  171.3472 O.3     1  UNL1       -0.5058
     17 C         143.3112  141.7066  169.6023 C.ar    1  UNL1        0.0119
     18 C         144.4575  142.4975  170.1596 C.3     1  UNL1        0.0342
     19 C         142.5161  142.2477  168.4511 C.ar    1  UNL1        0.0018
     20 H         143.5356  139.0016  171.7181 H       1  UNL1        0.2922
     21 C         142.6715  138.4722  163.9277 C.3     1  UNL1        0.1109
     22 N         142.1566  139.8264  164.3160 N.am    1  UNL1       -0.2991
     23 C         140.8515  139.9520  165.0449 C.2     1  UNL1        0.2490
     24 O         140.0615  138.7233  165.3854 O.2     1  UNL1       -0.2700
     25 H         142.6751  140.6329  164.0925 H       1  UNL1        0.1498
     26 C         139.2291  140.8029  162.4098 C.3     1  UNL1        0.1023
     27 N         140.4905  140.6916  161.6057 N.3     1  UNL1       -0.2687
     28 C         141.5257  141.7640  161.4364 C.3     1  UNL1        0.0726
     29 C         142.6132  141.2236  160.5558 C.3     1  UNL1        0.0235
     30 C         142.2502  139.8172  160.1810 C.3     1  UNL1        0.0707
     31 C         142.0889  138.4108  159.6850 C.3     1  UNL1        0.1458
     32 O         143.3916  138.5209  158.9494 O.3     1  UNL1       -0.3535
     33 C         143.5528  139.9273  159.4455 C.3     1  UNL1        0.1458
     34 C         140.9383  139.4885  160.8299 C.3     1  UNL1        0.0772
@<TRIPOS>BOND
     1    21    22    1
     2    22    23   am
     3    23    24    2
     4    23     1    1
     5     1     2   ar
     6     2    12    1
     7    12    13   ar
     8    13    14   ar
     9    14    15   ar
    10    15    16    1
    11    15    17   ar
    12    17    18    1
    13    17    19   ar
    14     2     3   ar
    15     3     4   ar
    16     4     5   ar
    17     5     6   ar
    18     6     7   ar
    19     7     8    1
    20     7     9   ar
    21     9    26    1
    22    26    27    1
    23    27    28    1
    24    28    29    1
    25    29    30    1
    26    30    31    1
    27    31    32    1
    28    32    33    1
    29    30    34    1
    30     9    10   ar
    31    10     1   ar
    32    19    12   ar
    33    10     4   ar
    34    34    27    1
    35    33    30    1
    36    22    25    1
    37    16    20    1
    38     8    11    1
@<TRIPOS>MOLECULE
*****
 34 38 0 0 0
SMALL
GASTEIGER

@<TRIPOS>ATOM
      1 C         139.4727  141.5046  165.8949 C.ar    1  UNL1        0.0906
      2 C         140.0448  142.3824  166.9682 C.ar    1  UNL1        0.1496
      3 O         139.9771  143.8026  166.4906 O.2     1  UNL1       -0.4534
      4 C         139.3631  143.8026  165.1220 C.ar    1  UNL1        0.1454
      5 C         139.0475  144.9124  164.1635 C.ar    1  UNL1        0.0406
      6 C         138.4203  144.6019  162.8368 C.ar    1  UNL1        0.0395
      7 C         138.1086  143.1816  162.4686 C.ar    1  UNL1        0.1311
      8 O         137.4813  142.8711  161.1419 O.3     1  UNL1       -0.5058
      9 C         138.4241  142.0718  163.4271 C.ar    1  UNL1        0.0308
     10 C         139.0513  142.3823  164.7538 C.ar    1  UNL1        0.0421
     11 H         137.2842  143.5644  160.5431 H       1  UNL1        0.2922
     12 C         140.5891  141.9209  168.2876 C.ar    1  UNL1        0.0346
     13 C         140.3930  142.7606  169.5149 C.ar    1  UNL1        0.0061
     14 C         140.9373  142.2992  170.8343 C.ar    1  UNL1        0.0364
     15 C         141.6778  140.9979  170.9264 C.ar    1  UNL1        0.1296
     16 O         142.2221  140.5365  172.2458 O.3     1  UNL1       -0.5058
     17 C         141.8739  140.1582  169.6991 C.ar    1  UNL1        0.0119
     18 C         142.6144  138.8569  169.7911 C.3     1  UNL1        0.0342
     19 C         141.3296  140.6197  168.3797 C.ar    1  UNL1        0.0018
     20 H         142.0996  141.0611  173.0124 H       1  UNL1        0.2922
     21 C         137.9309  137.8924  166.4654 C.3     1  UNL1        0.1109
     22 N         138.0592  139.3858  166.4078 N.am    1  UNL1       -0.2991
     23 C         139.3444  140.0112  165.9524 C.2     1  UNL1        0.2490
     24 O         140.5011  139.1431  165.5546 O.2     1  UNL1       -0.2700
     25 H         137.3000  139.9555  166.6690 H       1  UNL1        0.1498
     26 C         138.1124  140.6515  163.0590 C.3     1  UNL1        0.1023
     27 N         139.2017  139.7501  162.5583 N.3     1  UNL1       -0.2687
     28 C         139.1420  138.2532  162.4819 C.3     1  UNL1        0.0726
     29 C         140.4455  137.7652  161.9225 C.3     1  UNL1        0.0235
     30 C         141.3108  138.9605  161.6532 C.3     1  UNL1        0.0707
     31 C         142.3358  140.0001  161.3090 C.3     1  UNL1        0.1458
     32 O         143.2765  138.9228  160.8566 O.3     1  UNL1       -0.3535
     33 C         142.2514  137.8833  161.2009 C.3     1  UNL1        0.1458
     34 C         140.5421  140.1873  162.0462 C.3     1  UNL1        0.0772
@<TRIPOS>BOND
     1    21    22    1
     2    22    23   am
     3    23    24    2
     4    23     1    1
     5     1     2   ar
     6     2    12    1
     7    12    13   ar
     8    13    14   ar
     9    14    15   ar
    10    15    16    1
    11    15    17   ar
    12    17    18    1
    13    17    19   ar
    14     2     3   ar
    15     3     4   ar
    16     4     5   ar
    17     5     6   ar
    18     6     7   ar
    19     7     8    1
    20     7     9   ar
    21     9    26    1
    22    26    27    1
    23    27    28    1
    24    28    29    1
    25    29    30    1
    26    30    31    1
    27    31    32    1
    28    32    33    1
    29    30    34    1
    30     9    10   ar
    31    10     1   ar
    32    19    12   ar
    33    10     4   ar
    34    34    27    1
    35    33    30    1
    36    22    25    1
    37    16    20    1
    38     8    11    1
@<TRIPOS>MOLECULE
*****
 34 38 0 0 0
SMALL
GASTEIGER

@<TRIPOS>ATOM
      1 C         141.4510  140.3776  165.2593 C.ar    1  UNL1        0.0906
      2 C         140.7890  140.0711  166.5699 C.ar    1  UNL1        0.1496
      3 O         139.7032  139.0675  166.3172 O.2     1  UNL1       -0.4534
      4 C         139.6942  138.7538  164.8504 C.ar    1  UNL1        0.1454
      5 C         138.8419  137.8354  164.0257 C.ar    1  UNL1        0.0406
      6 C         139.0699  137.7268  162.5471 C.ar    1  UNL1        0.0395
      7 C         140.1501  138.5365  161.8933 C.ar    1  UNL1        0.1311
      8 O         140.3780  138.4278  160.4146 O.3     1  UNL1       -0.5058
      9 C         141.0023  139.4548  162.7180 C.ar    1  UNL1        0.0308
     10 C         140.7744  139.5635  164.1966 C.ar    1  UNL1        0.0421
     11 H         139.8456  137.8541  159.8995 H       1  UNL1        0.2922
     12 C         141.1494  140.6641  167.8998 C.ar    1  UNL1        0.0346
     13 C         142.0225  139.8995  168.8500 C.ar    1  UNL1        0.0061
     14 C         142.3830  140.4925  170.1798 C.ar    1  UNL1        0.0364
     15 C         141.8703  141.8500  170.5594 C.ar    1  UNL1        0.1296
     16 O         142.2308  142.4430  171.8893 O.3     1  UNL1       -0.5058
     17 C         140.9972  142.6146  169.6092 C.ar    1  UNL1        0.0119
     18 C         140.4845  143.9723  169.9887 C.3     1  UNL1        0.0342
     19 C         140.6368  142.0217  168.2793 C.ar    1  UNL1        0.0018
     20 H         142.7762  141.9654  172.4829 H       1  UNL1        0.2922
     21 C         143.4549  143.7430  164.6194 C.3     1  UNL1        0.1109
     22 N         142.3161  142.7897  164.8304 N.am    1  UNL1       -0.2991
     23 C         142.5897  141.3309  165.0484 C.2     1  UNL1        0.2490
     24 O         144.0020  140.8257  165.0554 O.2     1  UNL1       -0.2700
     25 H         141.3892  143.1213  164.8257 H       1  UNL1        0.1498
     26 C         142.0826  140.2645  162.0642 C.3     1  UNL1        0.1023
     27 N         141.8344  141.7016  161.7132 N.3     1  UNL1       -0.2687
     28 C         142.8435  142.6591  161.1520 C.3     1  UNL1        0.0726
     29 C         142.1664  143.9828  160.9536 C.3     1  UNL1        0.0235
     30 C         140.7387  143.8434  161.3923 C.3     1  UNL1        0.0707
     31 C         139.2898  143.9305  161.7706 C.3     1  UNL1        0.1458
     32 O         139.2680  145.3717  161.3553 O.3     1  UNL1       -0.3535
     33 C         140.7169  145.2845  160.9770 C.3     1  UNL1        0.1458
     34 C         140.5335  142.4335  161.8617 C.3     1  UNL1        0.0772
@<TRIPOS>BOND
     1    21    22    1
     2    22    23   am
     3    23    24    2
     4    23     1    1
     5     1     2   ar
     6     2    12    1
     7    12    13   ar
     8    13    14   ar
     9    14    15   ar
    10    15    16    1
    11    15    17   ar
    12    17    18    1
    13    17    19   ar
    14     2     3   ar
    15     3     4   ar
    16     4     5   ar
    17     5     6   ar
    18     6     7   ar
    19     7     8    1
    20     7     9   ar
    21     9    26    1
    22    26    27    1
    23    27    28    1
    24    28    29    1
    25    29    30    1
    26    30    31    1
    27    31    32    1
    28    32    33    1
    29    30    34    1
    30     9    10   ar
    31    10     1   ar
    32    19    12   ar
    33    10     4   ar
    34    34    27    1
    35    33    30    1
    36    22    25    1
    37    16    20    1
    38     8    11    1
@<TRIPOS>MOLECULE
*****
 34 38 0 0 0
SMALL
GASTEIGER

@<TRIPOS>ATOM
      1 C         140.0463  141.3779  165.2940 C.ar    1  UNL1        0.0906
      2 C         140.5953  140.7625  166.5469 C.ar    1  UNL1        0.1496
      3 O         140.3745  139.2808  166.4708 O.2     1  UNL1       -0.4534
      4 C         139.6891  138.9804  165.1708 C.ar    1  UNL1        0.1454
      5 C         139.2235  137.6942  164.5554 C.ar    1  UNL1        0.0406
      6 C         138.5550  137.7041  163.2127 C.ar    1  UNL1        0.0395
      7 C         138.3521  139.0002  162.4853 C.ar    1  UNL1        0.1311
      8 O         137.6836  139.0100  161.1425 O.3     1  UNL1       -0.5058
      9 C         138.8177  140.2864  163.1007 C.ar    1  UNL1        0.0308
     10 C         139.4862  140.2765  164.4435 C.ar    1  UNL1        0.0421
     11 H         137.3927  138.2065  160.7581 H       1  UNL1        0.2922
     12 C         141.2501  141.4994  167.6775 C.ar    1  UNL1        0.0346
     13 C         142.6465  141.1449  168.0949 C.ar    1  UNL1        0.0061
     14 C         143.3013  141.8818  169.2254 C.ar    1  UNL1        0.0364
     15 C         142.5597  142.9733  169.9386 C.ar    1  UNL1        0.1296
     16 O         143.2145  143.7102  171.0692 O.3     1  UNL1       -0.5058
     17 C         141.1633  143.3278  169.5212 C.ar    1  UNL1        0.0119
     18 C         140.4216  144.4194  170.2344 C.3     1  UNL1        0.0342
     19 C         140.5085  142.5909  168.3906 C.ar    1  UNL1        0.0018
     20 H         144.0868  143.4887  171.3299 H       1  UNL1        0.2922
     21 C         141.2656  144.9057  163.9455 C.3     1  UNL1        0.1109
     22 N         141.2562  143.4453  164.2878 N.am    1  UNL1       -0.2991
     23 C         140.0557  142.8383  164.9516 C.2     1  UNL1        0.2490
     24 O         138.8647  143.6916  165.2728 O.2     1  UNL1       -0.2700
     25 H         142.0379  142.8852  164.0770 H       1  UNL1        0.1498
     26 C         138.6148  141.5825  162.3734 C.3     1  UNL1        0.1023
     27 N         139.7291  142.1665  161.5566 N.3     1  UNL1       -0.2687
     28 C         141.0054  141.4728  161.1825 C.3     1  UNL1        0.0726
     29 C         141.8279  142.4243  160.3651 C.3     1  UNL1        0.0235
     30 C         141.0599  143.7062  160.2339 C.3     1  UNL1        0.0707
     31 C         140.4757  145.0635  159.9767 C.3     1  UNL1        0.1458
     32 O         141.6965  145.4399  159.1904 O.3     1  UNL1       -0.3535
     33 C         142.2806  144.0824  159.4477 C.3     1  UNL1        0.1458
     34 C         139.7628  143.5468  160.9703 C.3     1  UNL1        0.0772
@<TRIPOS>BOND
     1    21    22    1
     2    22    23   am
     3    23    24    2
     4    23     1    1
     5     1     2   ar
     6     2    12    1
     7    12    13   ar
     8    13    14   ar
     9    14    15   ar
    10    15    16    1
    11    15    17   ar
    12    17    18    1
    13    17    19   ar
    14     2     3   ar
    15     3     4   ar
    16     4     5   ar
    17     5     6   ar
    18     6     7   ar
    19     7     8    1
    20     7     9   ar
    21     9    26    1
    22    26    27    1
    23    27    28    1
    24    28    29    1
    25    29    30    1
    26    30    31    1
    27    31    32    1
    28    32    33    1
    29    30    34    1
    30     9    10   ar
    31    10     1   ar
    32    19    12   ar
    33    10     4   ar
    34    34    27    1
    35    33    30    1
    36    22    25    1
    37    16    20    1
    38     8    11    1
@<TRIPOS>MOLECULE
*****
 34 38 0 0 0
SMALL
GASTEIGER

@<TRIPOS>ATOM
      1 C         142.5513  140.6374  165.4169 C.ar    1  UNL1        0.0906
      2 C         142.6272  141.5513  166.6039 C.ar    1  UNL1        0.1496
      3 O         143.2882  142.8249  166.1667 O.2     1  UNL1       -0.4534
      4 C         143.6210  142.6980  164.7096 C.ar    1  UNL1        0.1454
      5 C         144.2798  143.6388  163.7449 C.ar    1  UNL1        0.0406
      6 C         144.4832  143.2277  162.3168 C.ar    1  UNL1        0.0395
      7 C         144.0277  141.8757  161.8534 C.ar    1  UNL1        0.1311
      8 O         144.2311  141.4646  160.4252 O.3     1  UNL1       -0.5058
      9 C         143.3689  140.9348  162.8181 C.ar    1  UNL1        0.0308
     10 C         143.1655  141.3460  164.2462 C.ar    1  UNL1        0.0421
     11 H         144.6427  142.0523  159.8225 H       1  UNL1        0.2922
     12 C         142.1294  141.2455  167.9854 C.ar    1  UNL1        0.0346
     13 C         143.0856  141.2305  169.1410 C.ar    1  UNL1        0.0061
     14 C         142.5878  140.9246  170.5225 C.ar    1  UNL1        0.0364
     15 C         141.1338  140.6339  170.7485 C.ar    1  UNL1        0.1296
     16 O         140.6360  140.3280  172.1301 O.3     1  UNL1       -0.5058
     17 C         140.1775  140.6489  169.5930 C.ar    1  UNL1        0.0119
     18 C         138.7234  140.3582  169.8190 C.3     1  UNL1        0.0342
     19 C         140.6753  140.9548  168.2114 C.ar    1  UNL1        0.0018
     20 H         141.2333  140.3186  172.8519 H       1  UNL1        0.2922
     21 C         139.9220  137.6836  165.0814 C.3     1  UNL1        0.1109
     22 N         140.5090  139.0640  165.0952 N.am    1  UNL1       -0.2991
     23 C         141.9644  139.2570  165.4031 C.2     1  UNL1        0.2490
     24 O         142.8326  138.0698  165.6972 O.2     1  UNL1       -0.2700
     25 H         139.9391  139.8432  164.9022 H       1  UNL1        0.1498
     26 C         142.9135  139.5829  162.3547 C.3     1  UNL1        0.1023
     27 N         141.4765  139.3612  161.9861 N.3     1  UNL1       -0.2687
     28 C         140.8623  138.0548  161.5780 C.3     1  UNL1        0.0726
     29 C         139.4076  138.2931  161.3005 C.3     1  UNL1        0.0235
     30 C         139.1226  139.7467  161.5370 C.3     1  UNL1        0.0707
     31 C         138.6165  141.1477  161.7130 C.3     1  UNL1        0.1458
     32 O         137.2417  140.7013  161.3119 O.3     1  UNL1       -0.3535
     33 C         137.7480  139.3004  161.1360 C.3     1  UNL1        0.1458
     34 C         140.4013  140.4068  161.9607 C.3     1  UNL1        0.0772
@<TRIPOS>BOND
     1    21    22    1
     2    22    23   am
     3    23    24    2
     4    23     1    1
     5     1     2   ar
     6     2    12    1
     7    12    13   ar
     8    13    14   ar
     9    14    15   ar
    10    15    16    1
    11    15    17   ar
    12    17    18    1
    13    17    19   ar
    14     2     3   ar
    15     3     4   ar
    16     4     5   ar
    17     5     6   ar
    18     6     7   ar
    19     7     8    1
    20     7     9   ar
    21     9    26    1
    22    26    27    1
    23    27    28    1
    24    28    29    1
    25    29    30    1
    26    30    31    1
    27    31    32    1
    28    32    33    1
    29    30    34    1
    30     9    10   ar
    31    10     1   ar
    32    19    12   ar
    33    10     4   ar
    34    34    27    1
    35    33    30    1
    36    22    25    1
    37    16    20    1
    38     8    11    1
@<TRIPOS>MOLECULE
*****
 34 38 0 0 0
SMALL
GASTEIGER

@<TRIPOS>ATOM
      1 C         141.6977  142.8326  165.1086 C.ar    1  UNL1        0.0906
      2 C         141.0143  142.4308  166.3819 C.ar    1  UNL1        0.1496
      3 O         139.5665  142.8067  166.2694 O.2     1  UNL1       -0.4534
      4 C         139.3552  143.4408  164.9266 C.ar    1  UNL1        0.1454
      5 C         138.1336  144.0056  164.2644 C.ar    1  UNL1        0.0406
      6 C         138.2291  144.5865  162.8848 C.ar    1  UNL1        0.0395
      7 C         139.5463  144.6025  162.1673 C.ar    1  UNL1        0.1311
      8 O         139.6418  145.1835  160.7876 O.3     1  UNL1       -0.5058
      9 C         140.7679  144.0377  162.8295 C.ar    1  UNL1        0.0308
     10 C         140.6724  143.4568  164.2091 C.ar    1  UNL1        0.0421
     11 H         138.8786  145.5363  160.3740 H       1  UNL1        0.2922
     12 C         141.6645  141.7693  167.5608 C.ar    1  UNL1        0.0346
     13 C         141.2369  140.3937  167.9790 C.ar    1  UNL1        0.0061
     14 C         141.8871  139.7322  169.1579 C.ar    1  UNL1        0.0364
     15 C         142.9648  140.4463  169.9185 C.ar    1  UNL1        0.1296
     16 O         143.6150  139.7847  171.0973 O.3     1  UNL1       -0.5058
     17 C         143.3924  141.8218  169.5002 C.ar    1  UNL1        0.0119
     18 C         144.4702  142.5359  170.2608 C.3     1  UNL1        0.0342
     19 C         142.7422  142.4833  168.3214 C.ar    1  UNL1        0.0018
     20 H         143.3479  138.9255  171.3586 H       1  UNL1        0.2922
     21 C         145.0551  141.2407  163.7141 C.3     1  UNL1        0.1109
     22 N         143.6015  141.4299  164.0322 N.am    1  UNL1       -0.2991
     23 C         143.1514  142.6434  164.7904 C.2     1  UNL1        0.2490
     24 O         144.1549  143.6676  165.2305 O.2     1  UNL1       -0.2700
     25 H         142.9428  140.7576  163.7433 H       1  UNL1        0.1498
     26 C         142.0851  144.0537  162.1120 C.3     1  UNL1        0.1023
     27 N         142.4345  142.9478  161.1607 N.3     1  UNL1       -0.2687
     28 C         141.7652  141.6076  161.0826 C.3     1  UNL1        0.0726
     29 C         142.4315  140.8194  159.9941 C.3     1  UNL1        0.0235
     30 C         143.5126  141.6725  159.3994 C.3     1  UNL1        0.0707
     31 C         144.6350  142.3421  158.6634 C.3     1  UNL1        0.1458
     32 O         144.8110  141.1163  157.8168 O.3     1  UNL1       -0.3535
     33 C         143.6886  140.4468  158.5529 C.3     1  UNL1        0.1458
     34 C         143.5144  142.9879  160.1205 C.3     1  UNL1        0.0772
@<TRIPOS>BOND
     1    21    22    1
     2    22    23   am
     3    23    24    2
     4    23     1    1
     5     1     2   ar
     6     2    12    1
     7    12    13   ar
     8    13    14   ar
     9    14    15   ar
    10    15    16    1
    11    15    17   ar
    12    17    18    1
    13    17    19   ar
    14     2     3   ar
    15     3     4   ar
    16     4     5   ar
    17     5     6   ar
    18     6     7   ar
    19     7     8    1
    20     7     9   ar
    21     9    26    1
    22    26    27    1
    23    27    28    1
    24    28    29    1
    25    29    30    1
    26    30    31    1
    27    31    32    1
    28    32    33    1
    29    30    34    1
    30     9    10   ar
    31    10     1   ar
    32    19    12   ar
    33    10     4   ar
    34    34    27    1
    35    33    30    1
    36    22    25    1
    37    16    20    1
    38     8    11    1
@<TRIPOS>MOLECULE
*****
 34 38 0 0 0
SMALL
GASTEIGER

@<TRIPOS>ATOM
      1 C         140.6292  141.3871  165.2403 C.ar    1  UNL1        0.0906
      2 C         140.7075  141.9995  166.6074 C.ar    1  UNL1        0.1496
      3 O         139.8611  143.2378  166.6097 O.2     1  UNL1       -0.4534
      4 C         139.2597  143.3909  165.2441 C.ar    1  UNL1        0.1454
      5 C         138.3411  144.4239  164.6619 C.ar    1  UNL1        0.0406
      6 C         137.8973  144.3132  163.2334 C.ar    1  UNL1        0.0395
      7 C         138.3721  143.1694  162.3870 C.ar    1  UNL1        0.1311
      8 O         137.9282  143.0587  160.9584 O.3     1  UNL1       -0.5058
      9 C         139.2906  142.1363  162.9692 C.ar    1  UNL1        0.0308
     10 C         139.7344  142.2471  164.3977 C.ar    1  UNL1        0.0421
     11 H         137.3544  143.7041  160.5948 H       1  UNL1        0.2922
     12 C         141.4941  141.4669  167.7683 C.ar    1  UNL1        0.0346
     13 C         141.1871  140.1069  168.3215 C.ar    1  UNL1        0.0061
     14 C         141.9737  139.5743  169.4824 C.ar    1  UNL1        0.0364
     15 C         143.0672  140.4018  170.0901 C.ar    1  UNL1        0.1296
     16 O         143.8538  139.8693  171.2510 O.3     1  UNL1       -0.5058
     17 C         143.3742  141.7619  169.5369 C.ar    1  UNL1        0.0119
     18 C         144.4678  142.5894  170.1447 C.3     1  UNL1        0.0342
     19 C         142.5876  142.2944  168.3760 C.ar    1  UNL1        0.0018
     20 H         143.6620  139.0197  171.5966 H       1  UNL1        0.2922
     21 C         143.3943  138.9583  163.7553 C.3     1  UNL1        0.1109
     22 N         142.6998  140.2107  164.2015 N.am    1  UNL1       -0.2991
     23 C         141.3238  140.1348  164.7941 C.2     1  UNL1        0.2490
     24 O         140.6425  138.8065  164.9403 O.2     1  UNL1       -0.2700
     25 H         143.1470  141.0825  164.1055 H       1  UNL1        0.1498
     26 C         139.7654  140.9925  162.1228 C.3     1  UNL1        0.1023
     27 N         140.4750  141.2610  160.8289 N.3     1  UNL1       -0.2687
     28 C         140.2229  140.5650  159.5242 C.3     1  UNL1        0.0726
     29 C         141.1533  141.1464  158.5013 C.3     1  UNL1        0.0235
     30 C         141.9806  142.2017  159.1738 C.3     1  UNL1        0.0707
     31 C         142.9085  143.2858  159.6356 C.3     1  UNL1        0.1458
     32 O         143.4800  143.3859  158.2524 O.3     1  UNL1       -0.3535
     33 C         142.5520  142.3017  157.7906 C.3     1  UNL1        0.1458
     34 C         141.5613  142.2724  160.6124 C.3     1  UNL1        0.0772
@<TRIPOS>BOND
     1    21    22    1
     2    22    23   am
     3    23    24    2
     4    23     1    1
     5     1     2   ar
     6     2    12    1
     7    12    13   ar
     8    13    14   ar
     9    14    15   ar
    10    15    16    1
    11    15    17   ar
    12    17    18    1
    13    17    19   ar
    14     2     3   ar
    15     3     4   ar
    16     4     5   ar
    17     5     6   ar
    18     6     7   ar
    19     7     8    1
    20     7     9   ar
    21     9    26    1
    22    26    27    1
    23    27    28    1
    24    28    29    1
    25    29    30    1
    26    30    31    1
    27    31    32    1
    28    32    33    1
    29    30    34    1
    30     9    10   ar
    31    10     1   ar
    32    19    12   ar
    33    10     4   ar
    34    34    27    1
    35    33    30    1
    36    22    25    1
    37    16    20    1
    38     8    11    1
@<TRIPOS>MOLECULE
*****
 34 38 0 0 0
SMALL
GASTEIGER

@<TRIPOS>ATOM
      1 C         141.2018  140.5666  165.4007 C.ar    1  UNL1        0.0906
      2 C         140.8776  140.4738  166.8623 C.ar    1  UNL1        0.1496
      3 O         139.8797  139.3692  167.0464 O.2     1  UNL1       -0.4534
      4 C         139.5871  138.7793  165.6987 C.ar    1  UNL1        0.1454
      5 C         138.6823  137.6639  165.2662 C.ar    1  UNL1        0.0406
      6 C         138.5945  137.2886  163.8166 C.ar    1  UNL1        0.0395
      7 C         139.4117  138.0286  162.7995 C.ar    1  UNL1        0.1311
      8 O         139.3239  137.6533  161.3498 O.3     1  UNL1       -0.5058
      9 C         140.3165  139.1441  163.2319 C.ar    1  UNL1        0.0308
     10 C         140.4042  139.5194  164.6815 C.ar    1  UNL1        0.0421
     11 H         138.7587  136.9565  161.0797 H       1  UNL1        0.2922
     12 C         141.4507  141.3345  167.9489 C.ar    1  UNL1        0.0346
     13 C         142.8374  141.0752  168.4583 C.ar    1  UNL1        0.0061
     14 C         143.4105  141.9359  169.5449 C.ar    1  UNL1        0.0364
     15 C         142.5968  143.0560  170.1222 C.ar    1  UNL1        0.1296
     16 O         143.1699  143.9167  171.2088 O.3     1  UNL1       -0.5058
     17 C         141.2101  143.3154  169.6128 C.ar    1  UNL1        0.0119
     18 C         140.3963  144.4355  170.1900 C.3     1  UNL1        0.0342
     19 C         140.6370  142.4547  168.5261 C.ar    1  UNL1        0.0018
     20 H         144.0362  143.7546  171.5270 H       1  UNL1        0.2922
     21 C         142.6575  143.8984  163.8099 C.3     1  UNL1        0.1109
     22 N         141.7033  142.9286  164.4415 N.am    1  UNL1       -0.2991
     23 C         142.1560  141.5365  164.7691 C.2     1  UNL1        0.2490
     24 O         143.5628  141.1143  164.4650 O.2     1  UNL1       -0.2700
     25 H         140.7799  143.2057  164.6410 H       1  UNL1        0.1498
     26 C         141.1336  139.8841  162.2148 C.3     1  UNL1        0.1023
     27 N         141.6802  139.1595  161.0206 N.3     1  UNL1       -0.2687
     28 C         142.7076  138.0667  161.0464 C.3     1  UNL1        0.0726
     29 C         142.9578  137.6322  159.6327 C.3     1  UNL1        0.0235
     30 C         142.0851  138.4564  158.7331 C.3     1  UNL1        0.0707
     31 C         141.3087  139.1570  157.6579 C.3     1  UNL1        0.1458
     32 O         141.9851  138.3124  156.6191 O.3     1  UNL1       -0.3535
     33 C         142.7615  137.6118  157.6944 C.3     1  UNL1        0.1458
     34 C         141.2955  139.4003  159.5909 C.3     1  UNL1        0.0772
@<TRIPOS>BOND
     1    21    22    1
     2    22    23   am
     3    23    24    2
     4    23     1    1
     5     1     2   ar
     6     2    12    1
     7    12    13   ar
     8    13    14   ar
     9    14    15   ar
    10    15    16    1
    11    15    17   ar
    12    17    18    1
    13    17    19   ar
    14     2     3   ar
    15     3     4   ar
    16     4     5   ar
    17     5     6   ar
    18     6     7   ar
    19     7     8    1
    20     7     9   ar
    21     9    26    1
    22    26    27    1
    23    27    28    1
    24    28    29    1
    25    29    30    1
    26    30    31    1
    27    31    32    1
    28    32    33    1
    29    30    34    1
    30     9    10   ar
    31    10     1   ar
    32    19    12   ar
    33    10     4   ar
    34    34    27    1
    35    33    30    1
    36    22    25    1
    37    16    20    1
    38     8    11    1
@<TRIPOS>MOLECULE
*****
 34 38 0 0 0
SMALL
GASTEIGER

@<TRIPOS>ATOM
      1 C         141.3455  140.7859  165.2533 C.ar    1  UNL1        0.0906
      2 C         140.9905  140.5850  166.6968 C.ar    1  UNL1        0.1496
      3 O         140.0207  139.4438  166.7811 O.2     1  UNL1       -0.4534
      4 C         139.7763  138.9394  165.3897 C.ar    1  UNL1        0.1454
      5 C         138.9139  137.8320  164.8606 C.ar    1  UNL1        0.0406
      6 C         138.8704  137.5541  163.3873 C.ar    1  UNL1        0.0395
      7 C         139.6891  138.3836  162.4430 C.ar    1  UNL1        0.1311
      8 O         139.6455  138.1056  160.9696 O.3     1  UNL1       -0.5058
      9 C         140.5515  139.4910  162.9721 C.ar    1  UNL1        0.0308
     10 C         140.5950  139.7689  164.4455 C.ar    1  UNL1        0.0421
     11 H         139.1069  137.4138  160.6391 H       1  UNL1        0.2922
     12 C         141.5136  141.3848  167.8529 C.ar    1  UNL1        0.0346
     13 C         142.8667  141.0806  168.4243 C.ar    1  UNL1        0.0061
     14 C         143.3897  141.8805  169.5805 C.ar    1  UNL1        0.0364
     15 C         142.5596  142.9845  170.1653 C.ar    1  UNL1        0.1296
     16 O         143.0827  143.7843  171.3214 O.3     1  UNL1       -0.5058
     17 C         141.2065  143.2887  169.5939 C.ar    1  UNL1        0.0119
     18 C         140.3764  144.3929  170.1786 C.3     1  UNL1        0.0342
     19 C         140.6835  142.4889  168.4377 C.ar    1  UNL1        0.0018
     20 H         143.9279  143.5943  171.6783 H       1  UNL1        0.2922
     21 C         144.6939  142.5627  164.0777 C.3     1  UNL1        0.1109
     22 N         143.7535  141.5266  164.6185 N.am    1  UNL1       -0.2991
     23 C         142.2858  141.8219  164.7125 C.2     1  UNL1        0.2490
     24 O         141.7586  143.1532  164.2657 O.2     1  UNL1       -0.2700
     25 H         144.0996  140.6529  164.9118 H       1  UNL1        0.1498
     26 C         141.3703  140.3204  162.0279 C.3     1  UNL1        0.1023
     27 N         140.6919  141.1687  160.9934 N.3     1  UNL1       -0.2687
     28 C         139.4671  142.0081  161.2063 C.3     1  UNL1        0.0726
     29 C         139.1374  142.6846  159.9088 C.3     1  UNL1        0.0235
     30 C         140.1585  142.2634  158.8938 C.3     1  UNL1        0.0707
     31 C         141.0609  141.9800  157.7297 C.3     1  UNL1        0.1458
     32 O         140.2311  142.8837  156.8666 O.3     1  UNL1       -0.3535
     33 C         139.3288  143.1670  158.0308 C.3     1  UNL1        0.1458
     34 C         141.1192  141.3265  159.5642 C.3     1  UNL1        0.0772
@<TRIPOS>BOND
     1    21    22    1
     2    22    23   am
     3    23    24    2
     4    23     1    1
     5     1     2   ar
     6     2    12    1
     7    12    13   ar
     8    13    14   ar
     9    14    15   ar
    10    15    16    1
    11    15    17   ar
    12    17    18    1
    13    17    19   ar
    14     2     3   ar
    15     3     4   ar
    16     4     5   ar
    17     5     6   ar
    18     6     7   ar
    19     7     8    1
    20     7     9   ar
    21     9    26    1
    22    26    27    1
    23    27    28    1
    24    28    29    1
    25    29    30    1
    26    30    31    1
    27    31    32    1
    28    32    33    1
    29    30    34    1
    30     9    10   ar
    31    10     1   ar
    32    19    12   ar
    33    10     4   ar
    34    34    27    1
    35    33    30    1
    36    22    25    1
    37    16    20    1
    38     8    11    1
