@<TRIPOS>MOLECULE
*****
 29 32 0 0 0
SMALL
GASTEIGER

@<TRIPOS>ATOM
      1 C         139.1425  139.1489  164.5068 C.ar    1  UNL1        0.0681
      2 C         138.3914  138.0888  165.2566 C.ar    1  UNL1        0.0208
      3 C         138.1514  138.2395  166.7296 C.ar    1  UNL1        0.0384
      4 C         138.6624  139.4503  167.4528 C.ar    1  UNL1        0.1386
      5 C         139.4135  140.5103  166.7029 C.ar    1  UNL1        0.0384
      6 C         139.6535  140.3596  165.2300 C.ar    1  UNL1        0.0208
      7 C         139.3060  139.3592  157.6381 C.ar    1  UNL1        0.1402
      8 C         138.2694  140.3231  158.1343 C.ar    1  UNL1        0.0372
      9 C         138.0294  140.4738  159.6073 C.ar    1  UNL1        0.0094
     10 C         138.8260  139.6606  160.5841 C.ar    1  UNL1        0.0744
     11 C         138.5859  139.8114  162.0571 C.ar    1  UNL1        0.2670
     12 O         137.5493  140.7753  162.5533 O.2     1  UNL1       -0.2665
     13 N         139.3825  138.9982  163.0338 N.ar    1  UNL1       -0.2626
     14 C         140.4192  138.0342  162.5376 C.ar    1  UNL1        0.1268
     15 C         141.2158  137.2210  163.5144 C.3     1  UNL1        0.0723
     16 N         140.6592  137.8834  161.0647 N.ar    1  UNL1       -0.2317
     17 C         139.8626  138.6967  160.0879 C.ar    1  UNL1        0.0902
     18 C         140.1026  138.5460  158.6149 C.ar    1  UNL1        0.0562
     19 C         139.2046  140.3312  155.2309 C.3     1  UNL1        0.2525
     20 O         139.5461  139.2085  156.1651 O.3     1  UNL1       -0.4714
     21 O         138.4224  139.6010  168.9258 O.3     1  UNL1       -0.4754
     22 C         139.2891  140.5181  169.7369 C.3     1  UNL1        0.2068
     23 C         140.4367  139.9618  170.5265 C.3     1  UNL1        0.0646
     24 C         141.8359  140.4208  170.2410 C.3     1  UNL1        0.0759
     25 N         142.3066  140.5551  168.8231 N.3     1  UNL1       -0.2726
     26 C         142.6322  139.4255  167.8914 C.3     1  UNL1        0.0721
     27 C         143.0611  140.0149  166.5804 C.3     1  UNL1        0.0188
     28 C         143.0006  141.5088  166.7019 C.3     1  UNL1        0.0188
     29 C         142.5343  141.8426  168.0879 C.3     1  UNL1        0.0721
@<TRIPOS>BOND
     1    19    20    1
     2    20     7    1
     3     7     8   ar
     4     8     9   ar
     5     9    10   ar
     6    10    11   ar
     7    11    12    2
     8    11    13   ar
     9    13     1    1
    10     1     2   ar
    11     2     3   ar
    12     3     4   ar
    13     4    21    1
    14    21    22    1
    15    22    23    1
    16    23    24    1
    17    24    25    1
    18    25    26    1
    19    26    27    1
    20    27    28    1
    21    28    29    1
    22     4     5   ar
    23     5     6   ar
    24    13    14   ar
    25    14    15    1
    26    14    16   ar
    27    16    17   ar
    28    17    18   ar
    29    18     7   ar
    30    17    10   ar
    31     6     1   ar
    32    29    25    1
@<TRIPOS>MOLECULE
*****
 29 32 0 0 0
SMALL
GASTEIGER

@<TRIPOS>ATOM
      1 C         141.6930  138.9735  162.4226 C.ar    1  UNL1        0.0681
      2 C         141.0628  139.6097  161.2191 C.ar    1  UNL1        0.0208
      3 C         141.5839  139.2991  159.8472 C.ar    1  UNL1        0.0384
      4 C         142.7352  138.3524  159.6788 C.ar    1  UNL1        0.1386
      5 C         143.3653  137.7162  160.8822 C.ar    1  UNL1        0.0384
      6 C         142.8442  138.0268  162.2541 C.ar    1  UNL1        0.0208
      7 C         140.2708  141.2734  168.7422 C.ar    1  UNL1        0.1402
      8 C         141.4542  142.0205  168.2025 C.ar    1  UNL1        0.0372
      9 C         141.9753  141.7100  166.8307 C.ar    1  UNL1        0.0094
     10 C         141.3131  140.6523  165.9985 C.ar    1  UNL1        0.0744
     11 C         141.8342  140.3417  164.6266 C.ar    1  UNL1        0.2670
     12 O         143.0176  141.0889  164.0869 O.2     1  UNL1       -0.2665
     13 N         141.1719  139.2840  163.7944 N.ar    1  UNL1       -0.2626
     14 C         139.9884  138.5368  164.3341 C.ar    1  UNL1        0.1268
     15 C         139.3261  137.4791  163.5019 C.3     1  UNL1        0.0723
     16 N         139.4673  138.8474  165.7059 N.ar    1  UNL1       -0.2317
     17 C         140.1297  139.9051  166.5381 C.ar    1  UNL1        0.0902
     18 C         139.6085  140.2157  167.9100 C.ar    1  UNL1        0.0562
     19 C         139.7901  142.9915  170.6308 C.3     1  UNL1        0.2525
     20 O         139.7497  141.5839  170.1140 O.3     1  UNL1       -0.4714
     21 O         143.2563  138.0418  158.3070 O.3     1  UNL1       -0.4754
     22 C         142.4377  137.2104  157.3642 C.3     1  UNL1        0.2068
     23 C         143.1102  136.2196  156.4608 C.3     1  UNL1        0.0646
     24 C         142.6457  134.7936  156.4338 C.3     1  UNL1        0.0759
     25 N         143.6161  133.6834  156.7091 N.3     1  UNL1       -0.2726
     26 C         144.3535  133.4556  157.9953 C.3     1  UNL1        0.0721
     27 C         145.2126  132.2375  157.8277 C.3     1  UNL1        0.0188
     28 C         145.0062  131.7124  156.4379 C.3     1  UNL1        0.0188
     29 C         144.0195  132.6060  155.7466 C.3     1  UNL1        0.0721
@<TRIPOS>BOND
     1    19    20    1
     2    20     7    1
     3     7     8   ar
     4     8     9   ar
     5     9    10   ar
     6    10    11   ar
     7    11    12    2
     8    11    13   ar
     9    13     1    1
    10     1     2   ar
    11     2     3   ar
    12     3     4   ar
    13     4    21    1
    14    21    22    1
    15    22    23    1
    16    23    24    1
    17    24    25    1
    18    25    26    1
    19    26    27    1
    20    27    28    1
    21    28    29    1
    22     4     5   ar
    23     5     6   ar
    24    13    14   ar
    25    14    15    1
    26    14    16   ar
    27    16    17   ar
    28    17    18   ar
    29    18     7   ar
    30    17    10   ar
    31     6     1   ar
    32    29    25    1
@<TRIPOS>MOLECULE
*****
 29 32 0 0 0
SMALL
GASTEIGER

@<TRIPOS>ATOM
      1 C         142.5959  139.3454  162.3961 C.ar    1  UNL1        0.0681
      2 C         142.5066  140.5371  161.4894 C.ar    1  UNL1        0.0208
      3 C         142.7813  140.3856  160.0226 C.ar    1  UNL1        0.0384
      4 C         143.1454  139.0425  159.4625 C.ar    1  UNL1        0.1386
      5 C         143.2347  137.8510  160.3692 C.ar    1  UNL1        0.0384
      6 C         142.9600  138.0024  161.8360 C.ar    1  UNL1        0.0208
      7 C         140.0883  139.8809  168.7738 C.ar    1  UNL1        0.1402
      8 C         138.9543  139.6592  167.8173 C.ar    1  UNL1        0.0372
      9 C         139.2290  139.5078  166.3505 C.ar    1  UNL1        0.0094
     10 C         140.6377  139.5780  165.8402 C.ar    1  UNL1        0.0744
     11 C         140.9125  139.4266  164.3733 C.ar    1  UNL1        0.2670
     12 O         139.7785  139.2050  163.4169 O.2     1  UNL1       -0.2665
     13 N         142.3212  139.4968  163.8630 N.ar    1  UNL1       -0.2626
     14 C         143.4553  139.7185  164.8195 C.ar    1  UNL1        0.1268
     15 C         144.8640  139.7887  164.3091 C.3     1  UNL1        0.0723
     16 N         143.1805  139.8699  166.2863 N.ar    1  UNL1       -0.2317
     17 C         141.7717  139.7997  166.7966 C.ar    1  UNL1        0.0902
     18 C         141.4970  139.9511  168.2635 C.ar    1  UNL1        0.0562
     19 C         140.7528  140.8235  171.1019 C.3     1  UNL1        0.2525
     20 O         139.8135  140.0323  170.2406 O.3     1  UNL1       -0.4714
     21 O         143.4201  138.8911  157.9956 O.3     1  UNL1       -0.4754
     22 C         142.3010  138.5600  157.0533 C.3     1  UNL1        0.2068
     23 C         141.8899  137.1319  156.8494 C.3     1  UNL1        0.0646
     24 C         142.8822  136.0278  157.0643 C.3     1  UNL1        0.0759
     25 N         142.5786  134.6415  156.5786 N.3     1  UNL1       -0.2726
     26 C         141.6359  134.2829  155.4683 C.3     1  UNL1        0.0721
     27 C         141.6390  132.7901  155.3215 C.3     1  UNL1        0.0188
     28 C         142.5837  132.2261  156.3411 C.3     1  UNL1        0.0188
     29 C         143.1643  133.3703  157.1180 C.3     1  UNL1        0.0721
@<TRIPOS>BOND
     1    19    20    1
     2    20     7    1
     3     7     8   ar
     4     8     9   ar
     5     9    10   ar
     6    10    11   ar
     7    11    12    2
     8    11    13   ar
     9    13     1    1
    10     1     2   ar
    11     2     3   ar
    12     3     4   ar
    13     4    21    1
    14    21    22    1
    15    22    23    1
    16    23    24    1
    17    24    25    1
    18    25    26    1
    19    26    27    1
    20    27    28    1
    21    28    29    1
    22     4     5   ar
    23     5     6   ar
    24    13    14   ar
    25    14    15    1
    26    14    16   ar
    27    16    17   ar
    28    17    18   ar
    29    18     7   ar
    30    17    10   ar
    31     6     1   ar
    32    29    25    1
@<TRIPOS>MOLECULE
*****
 29 32 0 0 0
SMALL
GASTEIGER

@<TRIPOS>ATOM
      1 C         141.7905  143.4152  162.6162 C.ar    1  UNL1        0.0681
      2 C         142.8079  144.0431  163.5222 C.ar    1  UNL1        0.0208
      3 C         143.2189  143.3462  164.7853 C.ar    1  UNL1        0.0384
      4 C         142.6124  142.0215  165.1425 C.ar    1  UNL1        0.1386
      5 C         141.5951  141.3938  164.2365 C.ar    1  UNL1        0.0384
      6 C         141.1841  142.0906  162.9734 C.ar    1  UNL1        0.0208
      7 C         140.9238  145.9838  156.2995 C.ar    1  UNL1        0.1402
      8 C         142.1118  145.0682  156.2984 C.ar    1  UNL1        0.0372
      9 C         142.5228  144.3714  157.5616 C.ar    1  UNL1        0.0094
     10 C         141.7457  144.5901  158.8258 C.ar    1  UNL1        0.0744
     11 C         142.1567  143.8933  160.0889 C.ar    1  UNL1        0.2670
     12 O         143.3448  142.9777  160.0879 O.2     1  UNL1       -0.2665
     13 N         141.3795  144.1120  161.3531 N.ar    1  UNL1       -0.2626
     14 C         140.1914  145.0277  161.3541 C.ar    1  UNL1        0.1268
     15 C         139.4142  145.2465  162.6183 C.3     1  UNL1        0.0723
     16 N         139.7804  145.7245  160.0910 N.ar    1  UNL1       -0.2317
     17 C         140.5576  145.5057  158.8268 C.ar    1  UNL1        0.0902
     18 C         140.1466  146.2026  157.5636 C.ar    1  UNL1        0.0562
     19 C         139.2401  147.4735  154.9972 C.3     1  UNL1        0.2525
     20 O         140.5128  146.6806  155.0363 O.3     1  UNL1       -0.4714
     21 O         143.0234  141.3247  166.4056 O.3     1  UNL1       -0.4754
     22 C         142.1803  140.2135  166.9576 C.3     1  UNL1        0.2068
     23 C         142.5931  139.5144  168.2189 C.3     1  UNL1        0.0646
     24 C         142.6689  140.2767  169.5085 C.3     1  UNL1        0.0759
     25 N         141.7158  141.4050  169.7700 N.3     1  UNL1       -0.2726
     26 C         140.3329  141.2775  170.3370 C.3     1  UNL1        0.0721
     27 C         139.7405  142.6526  170.4279 C.3     1  UNL1        0.0188
     28 C         140.7573  143.6299  169.9171 C.3     1  UNL1        0.0188
     29 C         141.9781  142.8589  169.5106 C.3     1  UNL1        0.0721
@<TRIPOS>BOND
     1    19    20    1
     2    20     7    1
     3     7     8   ar
     4     8     9   ar
     5     9    10   ar
     6    10    11   ar
     7    11    12    2
     8    11    13   ar
     9    13     1    1
    10     1     2   ar
    11     2     3   ar
    12     3     4   ar
    13     4    21    1
    14    21    22    1
    15    22    23    1
    16    23    24    1
    17    24    25    1
    18    25    26    1
    19    26    27    1
    20    27    28    1
    21    28    29    1
    22     4     5   ar
    23     5     6   ar
    24    13    14   ar
    25    14    15    1
    26    14    16   ar
    27    16    17   ar
    28    17    18   ar
    29    18     7   ar
    30    17    10   ar
    31     6     1   ar
    32    29    25    1
@<TRIPOS>MOLECULE
*****
 29 32 0 0 0
SMALL
GASTEIGER

@<TRIPOS>ATOM
      1 C         142.5732  139.2088  162.3634 C.ar    1  UNL1        0.0681
      2 C         142.6770  140.4038  161.4626 C.ar    1  UNL1        0.0208
      3 C         142.9521  140.2187  159.9997 C.ar    1  UNL1        0.0384
      4 C         143.1232  138.8386  159.4375 C.ar    1  UNL1        0.1386
      5 C         143.0193  137.6436  160.3382 C.ar    1  UNL1        0.0384
      6 C         142.7443  137.8288  161.8011 C.ar    1  UNL1        0.0208
      7 C         140.0633  139.9027  168.7249 C.ar    1  UNL1        0.1402
      8 C         138.9284  139.6709  167.7718 C.ar    1  UNL1        0.0372
      9 C         139.2034  139.4858  166.3089 C.ar    1  UNL1        0.0094
     10 C         140.6133  139.5324  165.7990 C.ar    1  UNL1        0.0744
     11 C         140.8883  139.3473  164.3361 C.ar    1  UNL1        0.2670
     12 O         139.7534  139.1156  163.3831 O.2     1  UNL1       -0.2665
     13 N         142.2982  139.3939  163.8263 N.ar    1  UNL1       -0.2626
     14 C         143.4331  139.6257  164.7793 C.ar    1  UNL1        0.1268
     15 C         144.8430  139.6723  164.2694 C.3     1  UNL1        0.0723
     16 N         143.1581  139.8108  166.2422 N.ar    1  UNL1       -0.2317
     17 C         141.7481  139.7642  166.7521 C.ar    1  UNL1        0.0902
     18 C         141.4731  139.9493  168.2150 C.ar    1  UNL1        0.0562
     19 C         140.8193  140.7274  171.0697 C.3     1  UNL1        0.2525
     20 O         139.7882  140.0878  170.1878 O.3     1  UNL1       -0.4714
     21 O         143.3982  138.6534  157.9746 O.3     1  UNL1       -0.4754
     22 C         142.7518  137.5251  157.2269 C.3     1  UNL1        0.2068
     23 C         141.4531  137.7472  156.5098 C.3     1  UNL1        0.0646
     24 C         140.1630  137.7391  157.2750 C.3     1  UNL1        0.0759
     25 N         139.8228  138.8829  158.1838 N.3     1  UNL1       -0.2726
     26 C         139.8213  140.3356  157.8101 C.3     1  UNL1        0.0721
     27 C         139.4220  141.1254  159.0212 C.3     1  UNL1        0.0188
     28 C         139.1766  140.1608  160.1434 C.3     1  UNL1        0.0188
     29 C         139.4244  138.7749  159.6259 C.3     1  UNL1        0.0721
@<TRIPOS>BOND
     1    19    20    1
     2    20     7    1
     3     7     8   ar
     4     8     9   ar
     5     9    10   ar
     6    10    11   ar
     7    11    12    2
     8    11    13   ar
     9    13     1    1
    10     1     2   ar
    11     2     3   ar
    12     3     4   ar
    13     4    21    1
    14    21    22    1
    15    22    23    1
    16    23    24    1
    17    24    25    1
    18    25    26    1
    19    26    27    1
    20    27    28    1
    21    28    29    1
    22     4     5   ar
    23     5     6   ar
    24    13    14   ar
    25    14    15    1
    26    14    16   ar
    27    16    17   ar
    28    17    18   ar
    29    18     7   ar
    30    17    10   ar
    31     6     1   ar
    32    29    25    1
@<TRIPOS>MOLECULE
*****
 29 32 0 0 0
SMALL
GASTEIGER

@<TRIPOS>ATOM
      1 C         139.5035  139.1960  163.6788 C.ar    1  UNL1        0.0681
      2 C         139.7542  140.4835  164.4065 C.ar    1  UNL1        0.0208
      3 C         139.5127  140.5690  165.8845 C.ar    1  UNL1        0.0384
      4 C         139.0205  139.3669  166.6348 C.ar    1  UNL1        0.1386
      5 C         138.7698  138.0795  165.9071 C.ar    1  UNL1        0.0384
      6 C         139.0113  137.9940  164.4291 C.ar    1  UNL1        0.0208
      7 C         141.7443  138.2574  157.2486 C.ar    1  UNL1        0.1402
      8 C         142.7776  137.7463  158.2082 C.ar    1  UNL1        0.0372
      9 C         142.5361  137.8318  159.6862 C.ar    1  UNL1        0.0094
     10 C         141.2613  138.4284  160.2045 C.ar    1  UNL1        0.0744
     11 C         141.0198  138.5139  161.6825 C.ar    1  UNL1        0.2670
     12 O         142.0532  138.0028  162.6421 O.2     1  UNL1       -0.2665
     13 N         139.7449  139.1105  162.2009 N.ar    1  UNL1       -0.2626
     14 C         138.7115  139.6216  161.2413 C.ar    1  UNL1        0.1268
     15 C         137.4366  140.2182  161.7596 C.3     1  UNL1        0.0723
     16 N         138.9530  139.5361  159.7633 N.ar    1  UNL1       -0.2317
     17 C         140.2279  138.9395  159.2449 C.ar    1  UNL1        0.0902
     18 C         140.4694  138.8540  157.7670 C.ar    1  UNL1        0.0562
     19 C         143.3864  138.0656  155.2444 C.3     1  UNL1        0.2525
     20 O         141.9857  138.1719  155.7706 O.3     1  UNL1       -0.4714
     21 O         138.7790  139.4524  168.1127 O.3     1  UNL1       -0.4754
     22 C         139.5605  140.4251  168.9453 C.3     1  UNL1        0.2068
     23 C         140.5818  139.9242  169.9231 C.3     1  UNL1        0.0646
     24 C         141.9615  139.5715  169.4520 C.3     1  UNL1        0.0759
     25 N         142.4246  140.0080  168.0937 N.3     1  UNL1       -0.2726
     26 C         142.6635  141.4228  167.6562 C.3     1  UNL1        0.0721
     27 C         143.1167  141.3956  166.2265 C.3     1  UNL1        0.0188
     28 C         143.1581  139.9641  165.7805 C.3     1  UNL1        0.0188
     29 C         142.7303  139.1065  166.9345 C.3     1  UNL1        0.0721
@<TRIPOS>BOND
     1    19    20    1
     2    20     7    1
     3     7     8   ar
     4     8     9   ar
     5     9    10   ar
     6    10    11   ar
     7    11    12    2
     8    11    13   ar
     9    13     1    1
    10     1     2   ar
    11     2     3   ar
    12     3     4   ar
    13     4    21    1
    14    21    22    1
    15    22    23    1
    16    23    24    1
    17    24    25    1
    18    25    26    1
    19    26    27    1
    20    27    28    1
    21    28    29    1
    22     4     5   ar
    23     5     6   ar
    24    13    14   ar
    25    14    15    1
    26    14    16   ar
    27    16    17   ar
    28    17    18   ar
    29    18     7   ar
    30    17    10   ar
    31     6     1   ar
    32    29    25    1
@<TRIPOS>MOLECULE
*****
 29 32 0 0 0
SMALL
GASTEIGER

@<TRIPOS>ATOM
      1 C         139.9688  139.6693  162.3410 C.ar    1  UNL1        0.0681
      2 C         140.3078  140.8119  161.4301 C.ar    1  UNL1        0.0208
      3 C         140.2183  140.6375  159.9430 C.ar    1  UNL1        0.0384
      4 C         139.7898  139.3205  159.3667 C.ar    1  UNL1        0.1386
      5 C         139.4508  138.1780  160.2776 C.ar    1  UNL1        0.0384
      6 C         139.5403  138.3524  161.7647 C.ar    1  UNL1        0.0208
      7 C         141.5580  139.9252  169.0237 C.ar    1  UNL1        0.1402
      8 C         142.6998  139.3092  168.2707 C.ar    1  UNL1        0.0372
      9 C         142.6102  139.1349  166.7836 C.ar    1  UNL1        0.0094
     10 C         141.3790  139.5764  166.0494 C.ar    1  UNL1        0.0744
     11 C         141.2895  139.4021  164.5623 C.ar    1  UNL1        0.2670
     12 O         142.4312  138.7861  163.8093 O.2     1  UNL1       -0.2665
     13 N         140.0583  139.8436  163.8281 N.ar    1  UNL1       -0.2626
     14 C         138.9165  140.4596  164.5811 C.ar    1  UNL1        0.1268
     15 C         137.6852  140.9012  163.8470 C.3     1  UNL1        0.0723
     16 N         139.0060  140.6340  166.0683 N.ar    1  UNL1       -0.2317
     17 C         140.2373  140.1924  166.8024 C.ar    1  UNL1        0.0902
     18 C         140.3268  140.3668  168.2896 C.ar    1  UNL1        0.0562
     19 C         141.5237  141.4671  171.1144 C.3     1  UNL1        0.2525
     20 O         141.6475  140.0996  170.5108 O.3     1  UNL1       -0.4714
     21 O         139.7003  139.1462  157.8796 O.3     1  UNL1       -0.4754
     22 C         139.9775  137.8069  157.2634 C.3     1  UNL1        0.2068
     23 C         141.3132  137.5305  156.6394 C.3     1  UNL1        0.0646
     24 C         142.4926  137.2024  157.5063 C.3     1  UNL1        0.0759
     25 N         142.9879  138.2024  158.5086 N.3     1  UNL1       -0.2726
     26 C         143.3923  139.6171  158.2169 C.3     1  UNL1        0.0721
     27 C         143.8201  140.2523  159.5067 C.3     1  UNL1        0.0188
     28 C         143.6801  139.2302  160.5955 C.3     1  UNL1        0.0188
     29 C         143.1658  137.9633  159.9787 C.3     1  UNL1        0.0721
@<TRIPOS>BOND
     1    19    20    1
     2    20     7    1
     3     7     8   ar
     4     8     9   ar
     5     9    10   ar
     6    10    11   ar
     7    11    12    2
     8    11    13   ar
     9    13     1    1
    10     1     2   ar
    11     2     3   ar
    12     3     4   ar
    13     4    21    1
    14    21    22    1
    15    22    23    1
    16    23    24    1
    17    24    25    1
    18    25    26    1
    19    26    27    1
    20    27    28    1
    21    28    29    1
    22     4     5   ar
    23     5     6   ar
    24    13    14   ar
    25    14    15    1
    26    14    16   ar
    27    16    17   ar
    28    17    18   ar
    29    18     7   ar
    30    17    10   ar
    31     6     1   ar
    32    29    25    1
@<TRIPOS>MOLECULE
*****
 29 32 0 0 0
SMALL
GASTEIGER

@<TRIPOS>ATOM
      1 C         142.0119  143.6816  162.2422 C.ar    1  UNL1        0.0681
      2 C         141.6502  142.2580  162.5468 C.ar    1  UNL1        0.0208
      3 C         142.1316  141.6168  163.8145 C.ar    1  UNL1        0.0384
      4 C         142.9746  142.3991  164.7776 C.ar    1  UNL1        0.1386
      5 C         143.3362  143.8226  164.4729 C.ar    1  UNL1        0.0384
      6 C         142.8548  144.4638  163.2052 C.ar    1  UNL1        0.0208
      7 C         140.8000  145.9816  155.8789 C.ar    1  UNL1        0.1402
      8 C         141.9950  145.0753  155.8541 C.ar    1  UNL1        0.0372
      9 C         142.4764  144.4341  157.1218 C.ar    1  UNL1        0.0094
     10 C         141.7628  144.6991  158.4143 C.ar    1  UNL1        0.0744
     11 C         142.2441  144.0578  159.6820 C.ar    1  UNL1        0.2670
     12 O         143.4391  143.1516  159.6573 O.2     1  UNL1       -0.2665
     13 N         141.5305  144.3229  160.9745 N.ar    1  UNL1       -0.2626
     14 C         140.3355  145.2292  160.9993 C.ar    1  UNL1        0.1268
     15 C         139.6218  145.4942  162.2917 C.3     1  UNL1        0.0723
     16 N         139.8541  145.8704  159.7315 N.ar    1  UNL1       -0.2317
     17 C         140.5678  145.6054  158.4390 C.ar    1  UNL1        0.0902
     18 C         140.0864  146.2466  157.1713 C.ar    1  UNL1        0.0562
     19 C         139.7235  147.9993  154.6460 C.3     1  UNL1        0.2525
     20 O         140.3186  146.6229  154.6112 O.3     1  UNL1       -0.4714
     21 O         143.4560  141.7578  166.0453 O.3     1  UNL1       -0.4754
     22 C         142.6199  141.8335  167.2884 C.3     1  UNL1        0.2068
     23 C         141.2192  142.3655  167.2190 C.3     1  UNL1        0.0646
     24 C         140.0714  141.4278  166.9881 C.3     1  UNL1        0.0759
     25 N         139.2345  141.5573  165.7500 N.3     1  UNL1       -0.2726
     26 C         138.9027  142.8361  165.0398 C.3     1  UNL1        0.0721
     27 C         138.0456  142.4998  163.8556 C.3     1  UNL1        0.0188
     28 C         137.8477  141.0131  163.8339 C.3     1  UNL1        0.0188
     29 C         138.5825  140.4306  165.0047 C.3     1  UNL1        0.0721
@<TRIPOS>BOND
     1    19    20    1
     2    20     7    1
     3     7     8   ar
     4     8     9   ar
     5     9    10   ar
     6    10    11   ar
     7    11    12    2
     8    11    13   ar
     9    13     1    1
    10     1     2   ar
    11     2     3   ar
    12     3     4   ar
    13     4    21    1
    14    21    22    1
    15    22    23    1
    16    23    24    1
    17    24    25    1
    18    25    26    1
    19    26    27    1
    20    27    28    1
    21    28    29    1
    22     4     5   ar
    23     5     6   ar
    24    13    14   ar
    25    14    15    1
    26    14    16   ar
    27    16    17   ar
    28    17    18   ar
    29    18     7   ar
    30    17    10   ar
    31     6     1   ar
    32    29    25    1
@<TRIPOS>MOLECULE
*****
 29 32 0 0 0
SMALL
GASTEIGER

@<TRIPOS>ATOM
      1 C         140.3993  143.2850  162.4854 C.ar    1  UNL1        0.0681
      2 C         139.3926  142.6087  161.6027 C.ar    1  UNL1        0.0208
      3 C         139.2269  143.0504  160.1788 C.ar    1  UNL1        0.0384
      4 C         140.0679  144.1685  159.6377 C.ar    1  UNL1        0.1386
      5 C         141.0745  144.8447  160.5204 C.ar    1  UNL1        0.0384
      6 C         141.2402  144.4030  161.9443 C.ar    1  UNL1        0.0208
      7 C         141.9224  140.3323  168.5030 C.ar    1  UNL1        0.1402
      8 C         142.6169  139.5882  167.4012 C.ar    1  UNL1        0.0372
      9 C         142.4512  140.0299  165.9774 C.ar    1  UNL1        0.0094
     10 C         141.5910  141.2157  165.6553 C.ar    1  UNL1        0.0744
     11 C         141.4252  141.6575  164.2314 C.ar    1  UNL1        0.2670
     12 O         142.1197  140.9133  163.1296 O.2     1  UNL1       -0.2665
     13 N         140.5650  142.8433  163.9093 N.ar    1  UNL1       -0.2626
     14 C         139.8705  143.5875  165.0111 C.ar    1  UNL1        0.1268
     15 C         139.0103  144.7733  164.6890 C.3     1  UNL1        0.0723
     16 N         140.0362  143.1457  166.4350 N.ar    1  UNL1       -0.2317
     17 C         140.8965  141.9598  166.7570 C.ar    1  UNL1        0.0902
     18 C         141.0622  141.5181  168.1809 C.ar    1  UNL1        0.0562
     19 C         141.9216  140.8788  171.0429 C.3     1  UNL1        0.2525
     20 O         142.0882  139.8905  169.9269 O.3     1  UNL1       -0.4714
     21 O         139.9021  144.6102  158.2138 O.3     1  UNL1       -0.4754
     22 C         140.3639  145.9740  157.7931 C.3     1  UNL1        0.2068
     23 C         140.1892  146.4194  156.3714 C.3     1  UNL1        0.0646
     24 C         138.9381  147.1365  155.9584 C.3     1  UNL1        0.0759
     25 N         139.0086  148.5612  155.4947 N.3     1  UNL1       -0.2726
     26 C         138.3748  149.7408  156.1707 C.3     1  UNL1        0.0721
     27 C         138.6997  150.9652  155.3674 C.3     1  UNL1        0.0188
     28 C         139.5342  150.5424  154.1949 C.3     1  UNL1        0.0188
     29 C         139.7251  149.0567  154.2736 C.3     1  UNL1        0.0721
@<TRIPOS>BOND
     1    19    20    1
     2    20     7    1
     3     7     8   ar
     4     8     9   ar
     5     9    10   ar
     6    10    11   ar
     7    11    12    2
     8    11    13   ar
     9    13     1    1
    10     1     2   ar
    11     2     3   ar
    12     3     4   ar
    13     4    21    1
    14    21    22    1
    15    22    23    1
    16    23    24    1
    17    24    25    1
    18    25    26    1
    19    26    27    1
    20    27    28    1
    21    28    29    1
    22     4     5   ar
    23     5     6   ar
    24    13    14   ar
    25    14    15    1
    26    14    16   ar
    27    16    17   ar
    28    17    18   ar
    29    18     7   ar
    30    17    10   ar
    31     6     1   ar
    32    29    25    1
