@<TRIPOS>MOLECULE
*****
 20 22 0 0 0
SMALL
GASTEIGER

@<TRIPOS>ATOM
      1 C         139.1083  138.7717  166.2127 C.ar    1  UNL1        0.1588
      2 C         140.2693  139.6553  166.5609 C.ar    1  UNL1        0.0583
      3 C         140.0576  140.1717  167.9532 C.ar    1  UNL1        0.1227
      4 N         138.7657  139.6072  168.4656 N.ar    1  UNL1       -0.0773
      5 O         138.1791  138.7419  167.3899 O.2     1  UNL1       -0.3574
      6 C         140.9764  141.0912  168.7017 C.ar    1  UNL1        0.0209
      7 C         142.3996  140.6888  168.9521 C.ar    1  UNL1        0.0016
      8 C         143.3185  141.6082  169.7006 C.ar    1  UNL1        0.0000
      9 C         142.8141  142.9302  170.1988 C.ar    1  UNL1        0.0000
     10 C         141.3909  143.3326  169.9485 C.ar    1  UNL1        0.0000
     11 C         140.4721  142.4131  169.1999 C.ar    1  UNL1        0.0016
     12 C         138.9112  138.0453  164.9152 C.3     1  UNL1        0.0952
     13 C         137.6766  140.9988  162.5695 C.ar    1  UNL1        0.1575
     14 C         137.6540  140.3115  161.2364 C.ar    1  UNL1        0.1356
     15 N         138.0505  138.8688  161.1296 N.ar    1  UNL1       -0.2395
     16 C         138.4696  138.1134  162.3559 C.ar    1  UNL1        0.0952
     17 C         138.4921  138.8007  163.6889 C.ar    1  UNL1        0.0077
     18 C         138.0956  140.2434  163.7957 C.ar    1  UNL1        0.0362
     19 C         137.7530  143.2654  163.8371 C.3     1  UNL1        0.2525
     20 O         137.2801  142.4415  162.6763 O.3     1  UNL1       -0.4699
@<TRIPOS>BOND
     1    19    20    1
     2    20    13    1
     3    13    14   ar
     4    14    15   ar
     5    15    16   ar
     6    16    17   ar
     7    17    12    1
     8    12     1    1
     9     1     2   ar
    10     2     3   ar
    11     3     6    1
    12     6     7   ar
    13     7     8   ar
    14     8     9   ar
    15     9    10   ar
    16    10    11   ar
    17     3     4   ar
    18     4     5   ar
    19    17    18   ar
    20    18    13   ar
    21     5     1   ar
    22    11     6   ar
@<TRIPOS>MOLECULE
*****
 20 22 0 0 0
SMALL
GASTEIGER

@<TRIPOS>ATOM
      1 C         138.4469  139.2527  165.7485 C.ar    1  UNL1        0.1588
      2 C         139.5659  139.9437  166.4697 C.ar    1  UNL1        0.0583
      3 C         139.3236  139.8042  167.9434 C.ar    1  UNL1        0.1227
      4 N         138.0548  139.0268  168.1331 N.ar    1  UNL1       -0.0773
      5 O         137.5129  138.6860  166.7765 O.2     1  UNL1       -0.3574
      6 C         140.1968  140.3467  169.0358 C.ar    1  UNL1        0.0209
      7 C         141.5544  139.7551  169.2743 C.ar    1  UNL1        0.0016
      8 C         142.4277  140.2975  170.3666 C.ar    1  UNL1        0.0000
      9 C         141.9432  141.4317  171.2205 C.ar    1  UNL1        0.0000
     10 C         140.5856  142.0233  170.9820 C.ar    1  UNL1        0.0000
     11 C         139.7124  141.4808  169.8897 C.ar    1  UNL1        0.0016
     12 C         138.2894  139.1468  164.2606 C.3     1  UNL1        0.0952
     13 C         137.8773  142.9649  163.2591 C.ar    1  UNL1        0.1575
     14 C         137.9476  142.8748  161.7635 C.ar    1  UNL1        0.1356
     15 N         138.1319  141.5421  161.1002 N.ar    1  UNL1       -0.2395
     16 C         138.2458  140.2994  161.9326 C.ar    1  UNL1        0.0952
     17 C         138.1755  140.3895  163.4282 C.ar    1  UNL1        0.0077
     18 C         137.9912  141.7222  164.0915 C.ar    1  UNL1        0.0362
     19 C         138.5547  144.6803  165.0890 C.3     1  UNL1        0.2525
     20 O         137.6930  144.2976  163.9224 O.3     1  UNL1       -0.4699
@<TRIPOS>BOND
     1    19    20    1
     2    20    13    1
     3    13    14   ar
     4    14    15   ar
     5    15    16   ar
     6    16    17   ar
     7    17    12    1
     8    12     1    1
     9     1     2   ar
    10     2     3   ar
    11     3     6    1
    12     6     7   ar
    13     7     8   ar
    14     8     9   ar
    15     9    10   ar
    16    10    11   ar
    17     3     4   ar
    18     4     5   ar
    19    17    18   ar
    20    18    13   ar
    21     5     1   ar
    22    11     6   ar
@<TRIPOS>MOLECULE
*****
 20 22 0 0 0
SMALL
GASTEIGER

@<TRIPOS>ATOM
      1 C         143.7480  139.2967  165.8264 C.ar    1  UNL1        0.1588
      2 C         142.8903  140.4294  166.3073 C.ar    1  UNL1        0.0583
      3 C         142.4795  140.1328  167.7191 C.ar    1  UNL1        0.1227
      4 N         143.0835  138.8168  168.1108 N.ar    1  UNL1       -0.0773
      5 O         143.8675  138.3001  166.9410 O.2     1  UNL1       -0.3574
      6 C         141.6164  140.9999  168.5869 C.ar    1  UNL1        0.0209
      7 C         140.3374  140.4579  169.1529 C.ar    1  UNL1        0.0016
      8 C         139.4742  141.3249  170.0207 C.ar    1  UNL1        0.0000
      9 C         139.8901  142.7342  170.3226 C.ar    1  UNL1        0.0000
     10 C         141.1691  143.2763  169.7566 C.ar    1  UNL1        0.0000
     11 C         142.0322  142.4092  168.8888 C.ar    1  UNL1        0.0016
     12 C         144.3761  139.1811  164.4692 C.3     1  UNL1        0.0952
     13 C         141.3512  137.8693  162.2603 C.ar    1  UNL1        0.1575
     14 C         141.8278  138.2295  160.8844 C.ar    1  UNL1        0.1356
     15 N         143.1538  138.9069  160.7034 N.ar    1  UNL1       -0.2395
     16 C         144.0033  139.2241  161.8983 C.ar    1  UNL1        0.0952
     17 C         143.5267  138.8639  163.2742 C.ar    1  UNL1        0.0077
     18 C         142.2006  138.1865  163.4552 C.ar    1  UNL1        0.0362
     19 C         138.9972  137.7880  163.3566 C.3     1  UNL1        0.2525
     20 O         140.0251  137.1919  162.4412 O.3     1  UNL1       -0.4699
@<TRIPOS>BOND
     1    19    20    1
     2    20    13    1
     3    13    14   ar
     4    14    15   ar
     5    15    16   ar
     6    16    17   ar
     7    17    12    1
     8    12     1    1
     9     1     2   ar
    10     2     3   ar
    11     3     6    1
    12     6     7   ar
    13     7     8   ar
    14     8     9   ar
    15     9    10   ar
    16    10    11   ar
    17     3     4   ar
    18     4     5   ar
    19    17    18   ar
    20    18    13   ar
    21     5     1   ar
    22    11     6   ar
@<TRIPOS>MOLECULE
*****
 20 22 0 0 0
SMALL
GASTEIGER

@<TRIPOS>ATOM
      1 C         138.7668  138.7357  166.5328 C.ar    1  UNL1        0.1588
      2 C         139.9458  139.6329  166.7672 C.ar    1  UNL1        0.0583
      3 C         139.8437  140.1777  168.1610 C.ar    1  UNL1        0.1227
      4 N         138.6017  139.6172  168.7881 N.ar    1  UNL1       -0.0773
      5 O         137.9361  138.7259  167.7818 O.2     1  UNL1       -0.3574
      6 C         140.8135  141.1180  168.8133 C.ar    1  UNL1        0.0209
      7 C         140.3435  142.4511  169.3151 C.ar    1  UNL1        0.0016
      8 C         141.3131  143.3915  169.9674 C.ar    1  UNL1        0.0000
      9 C         142.7530  142.9986  170.1179 C.ar    1  UNL1        0.0000
     10 C         143.2230  141.6655  169.6161 C.ar    1  UNL1        0.0000
     11 C         142.2533  140.7252  168.9638 C.ar    1  UNL1        0.0016
     12 C         138.4705  137.9807  165.2710 C.3     1  UNL1        0.0952
     13 C         140.9864  138.1911  162.2089 C.ar    1  UNL1        0.1575
     14 C         140.3426  139.2679  161.3866 C.ar    1  UNL1        0.1356
     15 N         139.0749  139.9156  161.8591 N.ar    1  UNL1       -0.2395
     16 C         138.4508  139.4865  163.1539 C.ar    1  UNL1        0.0952
     17 C         139.0946  138.4098  163.9761 C.ar    1  UNL1        0.0077
     18 C         140.3623  137.7621  163.5036 C.ar    1  UNL1        0.0362
     19 C         142.7494  137.7927  160.3427 C.3     1  UNL1        0.2525
     20 O         142.2541  137.5434  161.7364 O.3     1  UNL1       -0.4699
@<TRIPOS>BOND
     1    19    20    1
     2    20    13    1
     3    13    14   ar
     4    14    15   ar
     5    15    16   ar
     6    16    17   ar
     7    17    12    1
     8    12     1    1
     9     1     2   ar
    10     2     3   ar
    11     3     6    1
    12     6     7   ar
    13     7     8   ar
    14     8     9   ar
    15     9    10   ar
    16    10    11   ar
    17     3     4   ar
    18     4     5   ar
    19    17    18   ar
    20    18    13   ar
    21     5     1   ar
    22    11     6   ar
@<TRIPOS>MOLECULE
*****
 20 22 0 0 0
SMALL
GASTEIGER

@<TRIPOS>ATOM
      1 C         142.1377  138.5006  165.5215 C.ar    1  UNL1        0.1588
      2 C         141.1867  139.4789  166.1449 C.ar    1  UNL1        0.0583
      3 C         141.7292  139.8596  167.4905 C.ar    1  UNL1        0.1227
      4 N         143.0156  139.1166  167.6988 N.ar    1  UNL1       -0.0773
      5 O         143.2680  138.2767  166.4820 O.2     1  UNL1       -0.3574
      6 C         141.0965  140.8155  168.4580 C.ar    1  UNL1        0.0209
      7 C         141.6722  142.1885  168.6408 C.ar    1  UNL1        0.0016
      8 C         141.0396  143.1444  169.6082 C.ar    1  UNL1        0.0000
      9 C         139.8311  142.7273  170.3929 C.ar    1  UNL1        0.0000
     10 C         139.2554  141.3543  170.2101 C.ar    1  UNL1        0.0000
     11 C         139.8881  140.3984  169.2426 C.ar    1  UNL1        0.0016
     12 C         141.9852  137.8589  164.1744 C.3     1  UNL1        0.0952
     13 C         144.3370  140.1692  161.9649 C.ar    1  UNL1        0.1575
     14 C         144.0720  139.6166  160.5958 C.ar    1  UNL1        0.1356
     15 N         143.1113  138.4781  160.4196 N.ar    1  UNL1       -0.2395
     16 C         142.4158  137.8922  161.6124 C.ar    1  UNL1        0.0952
     17 C         142.6808  138.4448  162.9814 C.ar    1  UNL1        0.0077
     18 C         143.6414  139.5833  163.1577 C.ar    1  UNL1        0.0362
     19 C         145.7765  141.6794  163.5131 C.3     1  UNL1        0.2525
     20 O         145.2976  141.3077  162.1411 O.3     1  UNL1       -0.4699
@<TRIPOS>BOND
     1    19    20    1
     2    20    13    1
     3    13    14   ar
     4    14    15   ar
     5    15    16   ar
     6    16    17   ar
     7    17    12    1
     8    12     1    1
     9     1     2   ar
    10     2     3   ar
    11     3     6    1
    12     6     7   ar
    13     7     8   ar
    14     8     9   ar
    15     9    10   ar
    16    10    11   ar
    17     3     4   ar
    18     4     5   ar
    19    17    18   ar
    20    18    13   ar
    21     5     1   ar
    22    11     6   ar
@<TRIPOS>MOLECULE
*****
 20 22 0 0 0
SMALL
GASTEIGER

@<TRIPOS>ATOM
      1 C         139.0710  138.8831  166.0576 C.ar    1  UNL1        0.1588
      2 C         140.2105  139.7893  166.4186 C.ar    1  UNL1        0.0583
      3 C         140.0354  140.2072  167.8485 C.ar    1  UNL1        0.1227
      4 N         138.7876  139.5592  168.3713 N.ar    1  UNL1       -0.0773
      5 O         138.1916  138.7409  167.2644 O.2     1  UNL1       -0.3574
      6 C         140.9478  141.1138  168.6202 C.ar    1  UNL1        0.0209
      7 C         142.3611  140.6955  168.8985 C.ar    1  UNL1        0.0016
      8 C         143.2736  141.6020  169.6702 C.ar    1  UNL1        0.0000
      9 C         142.7727  142.9271  170.1636 C.ar    1  UNL1        0.0000
     10 C         141.3593  143.3455  169.8853 C.ar    1  UNL1        0.0000
     11 C         140.4469  142.4388  169.1136 C.ar    1  UNL1        0.0016
     12 C         138.8498  138.2332  164.7240 C.3     1  UNL1        0.0952
     13 C         138.3778  139.4086  160.9629 C.ar    1  UNL1        0.1575
     14 C         137.7091  140.7363  161.1626 C.ar    1  UNL1        0.1356
     15 N         137.4207  141.2297  162.5495 N.ar    1  UNL1       -0.2395
     16 C         137.8009  140.3953  163.7366 C.ar    1  UNL1        0.0952
     17 C         138.4695  139.0676  163.5368 C.ar    1  UNL1        0.0077
     18 C         138.7580  138.5742  162.1500 C.ar    1  UNL1        0.0362
     19 C         139.1222  139.8757  158.5180 C.3     1  UNL1        0.2525
     20 O         138.6663  138.9152  159.5760 O.3     1  UNL1       -0.4699
@<TRIPOS>BOND
     1    19    20    1
     2    20    13    1
     3    13    14   ar
     4    14    15   ar
     5    15    16   ar
     6    16    17   ar
     7    17    12    1
     8    12     1    1
     9     1     2   ar
    10     2     3   ar
    11     3     6    1
    12     6     7   ar
    13     7     8   ar
    14     8     9   ar
    15     9    10   ar
    16    10    11   ar
    17     3     4   ar
    18     4     5   ar
    19    17    18   ar
    20    18    13   ar
    21     5     1   ar
    22    11     6   ar
@<TRIPOS>MOLECULE
*****
 20 22 0 0 0
SMALL
GASTEIGER

@<TRIPOS>ATOM
      1 C         143.5577  138.9991  165.9305 C.ar    1  UNL1        0.1588
      2 C         142.6927  140.1540  166.3401 C.ar    1  UNL1        0.0583
      3 C         142.4149  140.0271  167.8086 C.ar    1  UNL1        0.1227
      4 N         143.1082  138.7937  168.3067 N.ar    1  UNL1       -0.0773
      5 O         143.8145  138.1584  167.1459 O.2     1  UNL1       -0.3574
      6 C         141.5887  140.9684  168.6343 C.ar    1  UNL1        0.0209
      7 C         140.3235  140.4866  169.2801 C.ar    1  UNL1        0.0016
      8 C         139.4973  141.4278  170.1057 C.ar    1  UNL1        0.0000
      9 C         139.9365  142.8508  170.2855 C.ar    1  UNL1        0.0000
     10 C         141.2017  143.3325  169.6397 C.ar    1  UNL1        0.0000
     11 C         142.0279  142.3913  168.8141 C.ar    1  UNL1        0.0016
     12 C         144.0751  138.7318  164.5481 C.3     1  UNL1        0.0952
     13 C         144.0981  141.1097  161.3708 C.ar    1  UNL1        0.1575
     14 C         145.0670  142.1655  161.8139 C.ar    1  UNL1        0.1356
     15 N         145.7052  142.0768  163.1684 N.ar    1  UNL1       -0.2395
     16 C         145.3746  140.9323  164.0799 C.ar    1  UNL1        0.0952
     17 C         144.4057  139.8765  163.6367 C.ar    1  UNL1        0.0077
     18 C         143.7675  139.9651  162.2822 C.ar    1  UNL1        0.0362
     19 C         143.5606  140.0448  159.0627 C.3     1  UNL1        0.2525
     20 O         143.4599  141.1983  160.0162 O.3     1  UNL1       -0.4699
@<TRIPOS>BOND
     1    19    20    1
     2    20    13    1
     3    13    14   ar
     4    14    15   ar
     5    15    16   ar
     6    16    17   ar
     7    17    12    1
     8    12     1    1
     9     1     2   ar
    10     2     3   ar
    11     3     6    1
    12     6     7   ar
    13     7     8   ar
    14     8     9   ar
    15     9    10   ar
    16    10    11   ar
    17     3     4   ar
    18     4     5   ar
    19    17    18   ar
    20    18    13   ar
    21     5     1   ar
    22    11     6   ar
@<TRIPOS>MOLECULE
*****
 20 22 0 0 0
SMALL
GASTEIGER

@<TRIPOS>ATOM
      1 C         138.3517  139.9014  165.4328 C.ar    1  UNL1        0.1588
      2 C         139.4516  140.5003  166.2584 C.ar    1  UNL1        0.0583
      3 C         139.3702  139.9121  167.6358 C.ar    1  UNL1        0.1227
      4 N         138.2200  138.9495  167.6616 N.ar    1  UNL1       -0.0773
      5 O         137.5906  138.9430  166.3000 O.2     1  UNL1       -0.3574
      6 C         140.2794  140.2304  168.7856 C.ar    1  UNL1        0.0209
      7 C         141.7013  139.7530  168.7720 C.ar    1  UNL1        0.0016
      8 C         142.6105  140.0713  169.9217 C.ar    1  UNL1        0.0000
      9 C         142.0977  140.8671  171.0853 C.ar    1  UNL1        0.0000
     10 C         140.6758  141.3446  171.0990 C.ar    1  UNL1        0.0000
     11 C         139.7666  141.0262  169.9491 C.ar    1  UNL1        0.0016
     12 C         138.0636  140.2072  163.9929 C.3     1  UNL1        0.0952
     13 C         139.9958  143.1110  162.0994 C.ar    1  UNL1        0.1575
     14 C         139.0569  144.2613  162.3113 C.ar    1  UNL1        0.1356
     15 N         137.7868  144.0604  163.0837 N.ar    1  UNL1       -0.2395
     16 C         137.4557  142.7090  163.6443 C.ar    1  UNL1        0.0952
     17 C         138.3947  141.5587  163.4324 C.ar    1  UNL1        0.0077
     18 C         139.6647  141.7596  162.6600 C.ar    1  UNL1        0.0362
     19 C         141.5037  144.6004  160.5969 C.3     1  UNL1        0.2525
     20 O         141.2659  143.3119  161.3270 O.3     1  UNL1       -0.4699
@<TRIPOS>BOND
     1    19    20    1
     2    20    13    1
     3    13    14   ar
     4    14    15   ar
     5    15    16   ar
     6    16    17   ar
     7    17    12    1
     8    12     1    1
     9     1     2   ar
    10     2     3   ar
    11     3     6    1
    12     6     7   ar
    13     7     8   ar
    14     8     9   ar
    15     9    10   ar
    16    10    11   ar
    17     3     4   ar
    18     4     5   ar
    19    17    18   ar
    20    18    13   ar
    21     5     1   ar
    22    11     6   ar
@<TRIPOS>MOLECULE
*****
 20 22 0 0 0
SMALL
GASTEIGER

@<TRIPOS>ATOM
      1 C         144.1239  139.7227  165.1882 C.ar    1  UNL1        0.1588
      2 C         143.3240  140.7823  165.8864 C.ar    1  UNL1        0.0583
      3 C         142.5793  140.1327  167.0149 C.ar    1  UNL1        0.1227
      4 N         142.9190  138.6716  167.0142 N.ar    1  UNL1       -0.0773
      5 O         143.8736  138.4183  165.8853 O.2     1  UNL1       -0.3574
      6 C         141.6569  140.8230  167.9755 C.ar    1  UNL1        0.0209
      7 C         141.8960  142.2567  168.3460 C.ar    1  UNL1        0.0016
      8 C         140.9736  142.9470  169.3066 C.ar    1  UNL1        0.0000
      9 C         139.8121  142.2035  169.8967 C.ar    1  UNL1        0.0000
     10 C         139.5730  140.7698  169.5262 C.ar    1  UNL1        0.0000
     11 C         140.4954  140.0795  168.5656 C.ar    1  UNL1        0.0016
     12 C         145.0172  139.9310  164.0014 C.3     1  UNL1        0.0952
     13 C         144.2386  143.3698  162.1796 C.ar    1  UNL1        0.1575
     14 C         143.8654  142.8866  160.8096 C.ar    1  UNL1        0.1356
     15 N         143.8761  141.4182  160.5034 N.ar    1  UNL1       -0.2395
     16 C         144.2600  140.4330  161.5673 C.ar    1  UNL1        0.0952
     17 C         144.6332  140.9162  162.9374 C.ar    1  UNL1        0.0077
     18 C         144.6225  142.3846  163.2436 C.ar    1  UNL1        0.0362
     19 C         143.7100  145.3252  163.8065 C.3     1  UNL1        0.2525
     20 O         144.2279  144.8382  162.4858 O.3     1  UNL1       -0.4699
@<TRIPOS>BOND
     1    19    20    1
     2    20    13    1
     3    13    14   ar
     4    14    15   ar
     5    15    16   ar
     6    16    17   ar
     7    17    12    1
     8    12     1    1
     9     1     2   ar
    10     2     3   ar
    11     3     6    1
    12     6     7   ar
    13     7     8   ar
    14     8     9   ar
    15     9    10   ar
    16    10    11   ar
    17     3     4   ar
    18     4     5   ar
    19    17    18   ar
    20    18    13   ar
    21     5     1   ar
    22    11     6   ar
