@<TRIPOS>MOLECULE
*****
 33 36 0 0 0
SMALL
GASTEIGER

@<TRIPOS>ATOM
      1 C         139.5432  144.2779  161.3508 C.ar    1  UNL1        0.1658
      2 N         138.8898  143.4773  160.2636 N.ar    1  UNL1       -0.2335
      3 C         138.1879  142.1938  160.5958 C.ar    1  UNL1        0.1331
      4 C         138.1396  141.7110  162.0150 C.ar    1  UNL1        0.1493
      5 N         138.7931  142.5116  163.1023 N.ar    1  UNL1       -0.2128
      6 C         139.4949  143.7950  162.7702 C.ar    1  UNL1        0.1557
      7 N         141.4889  145.5409  160.1809 N.am    1  UNL1       -0.3240
      8 C         140.2450  145.5613  161.0187 C.2     1  UNL1        0.2633
      9 O         139.7027  146.8653  161.5245 O.2     1  UNL1       -0.2686
     10 H         141.9495  146.3833  159.9629 H       1  UNL1        0.1453
     11 H         141.8448  144.6851  159.8489 H       1  UNL1        0.1453
     12 N         137.4379  140.4276  162.3472 N.pl3   1  UNL1       -0.3171
     13 H         136.5693  140.2200  161.9328 H       1  UNL1        0.1482
     14 C         138.0594  139.4605  163.3107 C.3     1  UNL1        0.0845
     15 C         138.0177  139.7384  164.7841 C.3     1  UNL1        0.0209
     16 C         138.6394  138.7713  165.7476 C.3     1  UNL1        0.0018
     17 C         139.3026  137.5263  165.2377 C.3     1  UNL1        0.0015
     18 C         139.3443  137.2484  163.7642 C.3     1  UNL1        0.0172
     19 C         138.7227  138.2154  162.8007 C.3     1  UNL1        0.0689
     20 N         138.7644  137.9376  161.3273 N.3     1  UNL1       -0.3209
     21 H         138.2982  138.6935  160.8255 H       1  UNL1        0.1189
     22 H         138.2881  137.0566  161.1338 H       1  UNL1        0.1189
     23 N         140.1483  144.5956  163.8574 N.pl3   1  UNL1       -0.2981
     24 H         139.6741  145.3590  164.2594 H       1  UNL1        0.1534
     25 C         141.5242  144.2330  164.3322 C.2     1  UNL1        0.0532
     26 C         142.7071  145.0443  163.8933 C.2     1  UNL1        0.0125
     27 C         144.0829  144.6817  164.3680 C.2     1  UNL1        0.0008
     28 C         144.2761  143.5079  165.2817 C.2     1  UNL1       -0.0020
     29 C         143.0932  142.6966  165.7206 C.2     1  UNL1        0.0067
     30 C         142.9749  141.4945  166.6101 C.2     1  UNL1        0.0182
     31 C         141.5259  141.1142  166.6850 C.2     1  UNL1        0.0936
     32 N         140.7486  142.0812  165.8419 N.2     1  UNL1       -0.2607
     33 C         141.7173  143.0592  165.2459 C.3     1  UNL1        0.1609
@<TRIPOS>BOND
     1     7     8   am
     2     8     9    2
     3     8     1    1
     4     1     2   ar
     5     2     3   ar
     6     3     4   ar
     7     4    12    1
     8    14    12    1
     9    14    15    1
    10    15    16    1
    11    16    17    1
    12    17    18    1
    13    18    19    1
    14    19    20    1
    15     4     5   ar
    16     5     6   ar
    17     6    23    1
    18    23    25    1
    19    25    26    2
    20    26    27    1
    21    27    28    2
    22    28    29    1
    23    29    30    2
    24    30    31    1
    25    31    32    2
    26    32    33    1
    27     6     1   ar
    28    33    25    1
    29    19    14    1
    30    33    29    1
    31     7    10    1
    32     7    11    1
    33    12    13    1
    34    20    21    1
    35    20    22    1
    36    23    24    1
@<TRIPOS>MOLECULE
*****
 33 36 0 0 0
SMALL
GASTEIGER

@<TRIPOS>ATOM
      1 C         141.4773  140.3661  168.4923 C.ar    1  UNL1        0.1658
      2 N         140.1637  139.7440  168.8630 N.ar    1  UNL1       -0.2335
      3 C         139.0483  139.6937  167.8612 C.ar    1  UNL1        0.1331
      4 C         139.2465  140.2655  166.4888 C.ar    1  UNL1        0.1493
      5 N         140.5602  140.8877  166.1180 N.ar    1  UNL1       -0.2128
      6 C         141.6755  140.9379  167.1198 C.ar    1  UNL1        0.1557
      7 N         142.8735  139.2272  170.3640 N.am    1  UNL1       -0.3240
      8 C         142.5926  140.4163  169.4941 C.2     1  UNL1        0.2633
      9 O         143.4271  141.6559  169.6258 O.2     1  UNL1       -0.2686
     10 H         143.6055  139.2602  171.0215 H       1  UNL1        0.1453
     11 H         142.3258  138.4136  170.2775 H       1  UNL1        0.1453
     12 N         138.1312  140.2153  165.4871 N.pl3   1  UNL1       -0.3171
     13 H         137.2606  140.6232  165.6989 H       1  UNL1        0.1482
     14 C         138.3424  139.5436  164.1626 C.3     1  UNL1        0.0845
     15 C         139.1928  138.3112  164.0738 C.3     1  UNL1        0.0209
     16 C         139.4040  137.6395  162.7493 C.3     1  UNL1        0.0018
     17 C         138.7647  138.2003  161.5136 C.3     1  UNL1        0.0015
     18 C         137.9143  139.4327  161.6024 C.3     1  UNL1        0.0172
     19 C         137.7031  140.1044  162.9268 C.3     1  UNL1        0.0689
     20 N         136.8527  141.3368  163.0158 N.3     1  UNL1       -0.3209
     21 H         136.8185  141.6572  163.9835 H       1  UNL1        0.1189
     22 H         135.9085  141.1223  162.6950 H       1  UNL1        0.1189
     23 N         142.9891  141.5600  166.7491 N.pl3   1  UNL1       -0.2981
     24 H         143.4559  142.1433  167.3902 H       1  UNL1        0.1534
     25 C         143.5915  141.2934  165.4014 C.2     1  UNL1        0.0532
     26 C         143.9867  139.8978  165.0194 C.2     1  UNL1        0.0125
     27 C         144.5890  139.6311  163.6719 C.2     1  UNL1        0.0008
     28 C         144.7962  140.7602  162.7062 C.2     1  UNL1       -0.0020
     29 C         144.4010  142.1558  163.0882 C.2     1  UNL1        0.0067
     30 C         144.4839  143.4597  162.3513 C.2     1  UNL1        0.0182
     31 C         143.9328  144.5321  163.2436 C.2     1  UNL1        0.0936
     32 N         143.5092  143.8911  164.5319 N.2     1  UNL1       -0.2607
     33 C         143.7986  142.4224  164.4359 C.3     1  UNL1        0.1609
@<TRIPOS>BOND
     1     7     8   am
     2     8     9    2
     3     8     1    1
     4     1     2   ar
     5     2     3   ar
     6     3     4   ar
     7     4    12    1
     8    14    12    1
     9    14    15    1
    10    15    16    1
    11    16    17    1
    12    17    18    1
    13    18    19    1
    14    19    20    1
    15     4     5   ar
    16     5     6   ar
    17     6    23    1
    18    23    25    1
    19    25    26    2
    20    26    27    1
    21    27    28    2
    22    28    29    1
    23    29    30    2
    24    30    31    1
    25    31    32    2
    26    32    33    1
    27     6     1   ar
    28    33    25    1
    29    19    14    1
    30    33    29    1
    31     7    10    1
    32     7    11    1
    33    12    13    1
    34    20    21    1
    35    20    22    1
    36    23    24    1
@<TRIPOS>MOLECULE
*****
 33 36 0 0 0
SMALL
GASTEIGER

@<TRIPOS>ATOM
      1 C         142.0359  141.2868  168.5065 C.ar    1  UNL1        0.1658
      2 N         140.7734  140.5832  168.9076 N.ar    1  UNL1       -0.2335
      3 C         139.6413  140.4591  167.9313 C.ar    1  UNL1        0.1331
      4 C         139.7718  141.0385  166.5540 C.ar    1  UNL1        0.1493
      5 N         141.0344  141.7421  166.1528 N.ar    1  UNL1       -0.2128
      6 C         142.1664  141.8662  167.1290 C.ar    1  UNL1        0.1557
      7 N         143.4177  140.3222  170.4838 N.am    1  UNL1       -0.3240
      8 C         143.1679  141.4109  169.4828 C.2     1  UNL1        0.2633
      9 O         144.0501  142.6239  169.4579 O.2     1  UNL1       -0.2686
     10 H         144.1607  140.4037  171.1246 H       1  UNL1        0.1453
     11 H         142.8387  139.5262  170.5001 H       1  UNL1        0.1453
     12 N         138.6398  140.9144  165.5777 N.pl3   1  UNL1       -0.3171
     13 H         137.8522  141.4993  165.6602 H       1  UNL1        0.1482
     14 C         138.7077  139.8990  164.4757 C.3     1  UNL1        0.0845
     15 C         139.6237  138.7176  164.5997 C.3     1  UNL1        0.0209
     16 C         139.6916  137.7023  163.4976 C.3     1  UNL1        0.0018
     17 C         138.8435  137.8683  162.2716 C.3     1  UNL1        0.0015
     18 C         137.9275  139.0497  162.1476 C.3     1  UNL1        0.0172
     19 C         137.8596  140.0650  163.2495 C.3     1  UNL1        0.0689
     20 N         136.9437  141.2464  163.1256 N.3     1  UNL1       -0.3209
     21 H         137.0249  141.8285  163.9592 H       1  UNL1        0.1189
     22 H         135.9814  140.9220  163.0298 H       1  UNL1        0.1189
     23 N         143.4290  142.5697  166.7279 N.pl3   1  UNL1       -0.2981
     24 H         144.0461  142.9051  167.4178 H       1  UNL1        0.1534
     25 C         143.7514  142.7623  165.2757 C.2     1  UNL1        0.0532
     26 C         143.7660  144.1419  164.6871 C.2     1  UNL1        0.0125
     27 C         144.0883  144.3344  163.2350 C.2     1  UNL1        0.0008
     28 C         144.3962  143.1473  162.3712 C.2     1  UNL1       -0.0020
     29 C         144.3816  141.7677  162.9597 C.2     1  UNL1        0.0067
     30 C         144.6423  140.4178  162.3598 C.2     1  UNL1        0.0182
     31 C         144.4810  139.3910  163.4413 C.2     1  UNL1        0.0936
     32 N         144.1206  140.1063  164.7096 N.2     1  UNL1       -0.2607
     33 C         144.0592  141.5751  164.4120 C.3     1  UNL1        0.1609
@<TRIPOS>BOND
     1     7     8   am
     2     8     9    2
     3     8     1    1
     4     1     2   ar
     5     2     3   ar
     6     3     4   ar
     7     4    12    1
     8    14    12    1
     9    14    15    1
    10    15    16    1
    11    16    17    1
    12    17    18    1
    13    18    19    1
    14    19    20    1
    15     4     5   ar
    16     5     6   ar
    17     6    23    1
    18    23    25    1
    19    25    26    2
    20    26    27    1
    21    27    28    2
    22    28    29    1
    23    29    30    2
    24    30    31    1
    25    31    32    2
    26    32    33    1
    27     6     1   ar
    28    33    25    1
    29    19    14    1
    30    33    29    1
    31     7    10    1
    32     7    11    1
    33    12    13    1
    34    20    21    1
    35    20    22    1
    36    23    24    1
@<TRIPOS>MOLECULE
*****
 33 36 0 0 0
SMALL
GASTEIGER

@<TRIPOS>ATOM
      1 C         138.3008  138.7741  163.0376 C.ar    1  UNL1        0.1658
      2 N         138.8810  137.6178  163.7969 N.ar    1  UNL1       -0.2335
      3 C         139.0038  137.6871  165.2903 C.ar    1  UNL1        0.1331
      4 C         138.5464  138.9125  166.0244 C.ar    1  UNL1        0.1493
      5 N         137.9661  140.0688  165.2652 N.ar    1  UNL1       -0.2128
      6 C         137.8433  139.9996  163.7718 C.ar    1  UNL1        0.1557
      7 N         139.1686  137.9100  160.7464 N.am    1  UNL1       -0.3240
      8 C         138.1780  138.7048  161.5443 C.2     1  UNL1        0.2633
      9 O         137.0644  139.4305  160.8489 O.2     1  UNL1       -0.2686
     10 H         139.0880  137.8645  159.7662 H       1  UNL1        0.1453
     11 H         139.8994  137.4337  161.2028 H       1  UNL1        0.1453
     12 N         138.6692  138.9818  167.5178 N.pl3   1  UNL1       -0.3171
     13 H         138.2778  138.2726  168.0773 H       1  UNL1        0.1482
     14 C         139.3883  140.1317  168.1586 C.3     1  UNL1        0.0845
     15 C         140.3631  140.9454  167.3602 C.3     1  UNL1        0.0209
     16 C         141.0822  142.0953  168.0012 C.3     1  UNL1        0.0018
     17 C         140.8265  142.4314  169.4405 C.3     1  UNL1        0.0015
     18 C         139.8516  141.6175  170.2389 C.3     1  UNL1        0.0172
     19 C         139.1326  140.4677  169.5980 C.3     1  UNL1        0.0689
     20 N         138.1578  139.6539  170.3964 N.3     1  UNL1       -0.3209
     21 H         137.7654  138.9194  169.8073 H       1  UNL1        0.1189
     22 H         137.4072  140.2568  170.7334 H       1  UNL1        0.1189
     23 N         137.2631  141.1558  163.0126 N.pl3   1  UNL1       -0.2981
     24 H         136.4369  141.0370  162.4905 H       1  UNL1        0.1534
     25 C         137.9416  142.4931  163.0488 C.2     1  UNL1        0.0532
     26 C         137.8112  143.3677  164.2604 C.2     1  UNL1        0.0125
     27 C         138.4897  144.7049  164.2967 C.2     1  UNL1        0.0008
     28 C         139.2986  145.1676  163.1212 C.2     1  UNL1       -0.0020
     29 C         139.4290  144.2930  161.9096 C.2     1  UNL1        0.0067
     30 C         140.1545  144.4801  160.6101 C.2     1  UNL1        0.0182
     31 C         139.9243  143.2584  159.7708 C.2     1  UNL1        0.0936
     32 N         139.0566  142.3163  160.5515 N.2     1  UNL1       -0.2607
     33 C         138.7505  142.9557  161.8734 C.3     1  UNL1        0.1609
@<TRIPOS>BOND
     1     7     8   am
     2     8     9    2
     3     8     1    1
     4     1     2   ar
     5     2     3   ar
     6     3     4   ar
     7     4    12    1
     8    14    12    1
     9    14    15    1
    10    15    16    1
    11    16    17    1
    12    17    18    1
    13    18    19    1
    14    19    20    1
    15     4     5   ar
    16     5     6   ar
    17     6    23    1
    18    23    25    1
    19    25    26    2
    20    26    27    1
    21    27    28    2
    22    28    29    1
    23    29    30    2
    24    30    31    1
    25    31    32    2
    26    32    33    1
    27     6     1   ar
    28    33    25    1
    29    19    14    1
    30    33    29    1
    31     7    10    1
    32     7    11    1
    33    12    13    1
    34    20    21    1
    35    20    22    1
    36    23    24    1
@<TRIPOS>MOLECULE
*****
 33 36 0 0 0
SMALL
GASTEIGER

@<TRIPOS>ATOM
      1 C         138.8181  139.5778  164.4696 C.ar    1  UNL1        0.1658
      2 N         137.8892  139.0346  165.5146 N.ar    1  UNL1       -0.2335
      3 C         138.2621  139.1169  166.9653 C.ar    1  UNL1        0.1331
      4 C         139.5637  139.7423  167.3708 C.ar    1  UNL1        0.1493
      5 N         140.4926  140.2855  166.3258 N.ar    1  UNL1       -0.2128
      6 C         140.1198  140.2032  164.8752 C.ar    1  UNL1        0.1557
      7 N         137.3082  140.3177  162.4891 N.am    1  UNL1       -0.3240
      8 C         138.4453  139.4956  163.0190 C.2     1  UNL1        0.2633
      9 O         139.2097  138.5911  162.0983 O.2     1  UNL1       -0.2686
     10 H         137.0635  140.2637  161.5370 H       1  UNL1        0.1453
     11 H         136.8065  140.9113  163.0934 H       1  UNL1        0.1453
     12 N         139.9365  139.8245  168.8214 N.pl3   1  UNL1       -0.3171
     13 H         139.5331  139.2027  169.4694 H       1  UNL1        0.1482
     14 C         140.9240  140.8541  169.2848 C.3     1  UNL1        0.0845
     15 C         140.4720  142.2586  169.5553 C.3     1  UNL1        0.0209
     16 C         141.4596  143.2882  170.0187 C.3     1  UNL1        0.0018
     17 C         142.8991  142.9134  170.2115 C.3     1  UNL1        0.0015
     18 C         143.3511  141.5088  169.9410 C.3     1  UNL1        0.0172
     19 C         142.3637  140.4793  169.4777 C.3     1  UNL1        0.0689
     20 N         142.8156  139.0748  169.2071 N.3     1  UNL1       -0.3209
     21 H         142.0196  138.5142  168.9029 H       1  UNL1        0.1189
     22 H         143.2081  138.6739  170.0589 H       1  UNL1        0.1189
     23 N         141.0487  140.7464  163.8301 N.pl3   1  UNL1       -0.2981
     24 H         141.4555  140.1399  163.1700 H       1  UNL1        0.1534
     25 C         141.3577  142.2137  163.7909 C.2     1  UNL1        0.0532
     26 C         142.7366  142.6990  164.1270 C.2     1  UNL1        0.0125
     27 C         143.0456  144.1662  164.0878 C.2     1  UNL1        0.0008
     28 C         141.9757  145.1483  163.7125 C.2     1  UNL1       -0.0020
     29 C         140.5967  144.6630  163.3764 C.2     1  UNL1        0.0067
     30 C         139.3476  145.3892  162.9736 C.2     1  UNL1        0.0182
     31 C         138.2665  144.3707  162.7640 C.2     1  UNL1        0.0936
     32 N         138.8476  143.0150  163.0371 N.2     1  UNL1       -0.2607
     33 C         140.2877  143.1957  163.4156 C.3     1  UNL1        0.1609
@<TRIPOS>BOND
     1     7     8   am
     2     8     9    2
     3     8     1    1
     4     1     2   ar
     5     2     3   ar
     6     3     4   ar
     7     4    12    1
     8    14    12    1
     9    14    15    1
    10    15    16    1
    11    16    17    1
    12    17    18    1
    13    18    19    1
    14    19    20    1
    15     4     5   ar
    16     5     6   ar
    17     6    23    1
    18    23    25    1
    19    25    26    2
    20    26    27    1
    21    27    28    2
    22    28    29    1
    23    29    30    2
    24    30    31    1
    25    31    32    2
    26    32    33    1
    27     6     1   ar
    28    33    25    1
    29    19    14    1
    30    33    29    1
    31     7    10    1
    32     7    11    1
    33    12    13    1
    34    20    21    1
    35    20    22    1
    36    23    24    1
@<TRIPOS>MOLECULE
*****
 33 36 0 0 0
SMALL
GASTEIGER

@<TRIPOS>ATOM
      1 C         139.2320  139.8479  167.9651 C.ar    1  UNL1        0.1658
      2 N         138.1126  138.8547  167.8628 N.ar    1  UNL1       -0.2335
      3 C         137.9071  138.0845  166.5921 C.ar    1  UNL1        0.1331
      4 C         138.8209  138.3075  165.4238 C.ar    1  UNL1        0.1493
      5 N         139.9404  139.3007  165.5260 N.ar    1  UNL1       -0.2128
      6 C         140.1459  140.0709  166.7967 C.ar    1  UNL1        0.1557
      7 N         139.1423  139.9753  170.5585 N.am    1  UNL1       -0.3240
      8 C         139.4375  140.6181  169.2358 C.2     1  UNL1        0.2633
      9 O         139.9383  142.0311  169.1836 O.2     1  UNL1       -0.2686
     10 H         139.2772  140.4808  171.3924 H       1  UNL1        0.1453
     11 H         138.8136  139.0479  170.5926 H       1  UNL1        0.1453
     12 N         138.6154  137.5373  164.1531 N.pl3   1  UNL1       -0.3171
     13 H         138.2734  136.6147  164.1865 H       1  UNL1        0.1482
     14 C         138.9310  138.1728  162.8315 C.3     1  UNL1        0.0845
     15 C         137.9411  139.0988  162.1892 C.3     1  UNL1        0.0209
     16 C         138.2567  139.7343  160.8676 C.3     1  UNL1        0.0018
     17 C         139.5622  139.4438  160.1883 C.3     1  UNL1        0.0015
     18 C         140.5521  138.5177  160.8308 C.3     1  UNL1        0.0172
     19 C         140.2365  137.8823  162.1523 C.3     1  UNL1        0.0689
     20 N         141.2263  136.9562  162.7947 N.3     1  UNL1       -0.3209
     21 H         140.8506  136.6187  163.6809 H       1  UNL1        0.1189
     22 H         142.0993  137.4559  162.9638 H       1  UNL1        0.1189
     23 N         141.2653  141.0641  166.8990 N.pl3   1  UNL1       -0.2981
     24 H         141.9695  140.9440  167.5764 H       1  UNL1        0.1534
     25 C         141.3117  142.2402  165.9692 C.2     1  UNL1        0.0532
     26 C         140.0809  143.0675  165.7443 C.2     1  UNL1        0.0125
     27 C         140.1273  144.2436  164.8146 C.2     1  UNL1        0.0008
     28 C         141.4046  144.5926  164.1097 C.2     1  UNL1       -0.0020
     29 C         142.6354  143.7653  164.3346 C.2     1  UNL1        0.0067
     30 C         144.0269  143.8661  163.7837 C.2     1  UNL1        0.0182
     31 C         144.8405  142.7522  164.3730 C.2     1  UNL1        0.0936
     32 N         143.9518  141.9630  165.2881 N.2     1  UNL1       -0.2607
     33 C         142.5890  142.5891  165.2644 C.3     1  UNL1        0.1609
@<TRIPOS>BOND
     1     7     8   am
     2     8     9    2
     3     8     1    1
     4     1     2   ar
     5     2     3   ar
     6     3     4   ar
     7     4    12    1
     8    14    12    1
     9    14    15    1
    10    15    16    1
    11    16    17    1
    12    17    18    1
    13    18    19    1
    14    19    20    1
    15     4     5   ar
    16     5     6   ar
    17     6    23    1
    18    23    25    1
    19    25    26    2
    20    26    27    1
    21    27    28    2
    22    28    29    1
    23    29    30    2
    24    30    31    1
    25    31    32    2
    26    32    33    1
    27     6     1   ar
    28    33    25    1
    29    19    14    1
    30    33    29    1
    31     7    10    1
    32     7    11    1
    33    12    13    1
    34    20    21    1
    35    20    22    1
    36    23    24    1
@<TRIPOS>MOLECULE
*****
 33 36 0 0 0
SMALL
GASTEIGER

@<TRIPOS>ATOM
      1 C         139.3737  139.8554  167.9790 C.ar    1  UNL1        0.1658
      2 N         138.1423  139.0264  167.7638 N.ar    1  UNL1       -0.2335
      3 C         137.9693  138.2575  166.4874 C.ar    1  UNL1        0.1331
      4 C         139.0277  138.3176  165.4263 C.ar    1  UNL1        0.1493
      5 N         140.2592  139.1466  165.6414 N.ar    1  UNL1       -0.2128
      6 C         140.4322  139.9155  166.9177 C.ar    1  UNL1        0.1557
      7 N         139.2005  139.9863  170.5679 N.am    1  UNL1       -0.3240
      8 C         139.5467  140.6242  169.2553 C.2     1  UNL1        0.2633
      9 O         140.0659  142.0311  169.2188 O.2     1  UNL1       -0.2686
     10 H         139.3140  140.4910  171.4055 H       1  UNL1        0.1453
     11 H         138.8597  139.0630  170.5918 H       1  UNL1        0.1453
     12 N         138.8548  137.5488  164.1501 N.pl3   1  UNL1       -0.3171
     13 H         138.6173  136.5938  164.1790 H       1  UNL1        0.1482
     14 C         139.0436  138.2350  162.8296 C.3     1  UNL1        0.0845
     15 C         137.9927  139.1735  162.3151 C.3     1  UNL1        0.0209
     16 C         138.1816  139.8596  160.9946 C.3     1  UNL1        0.0018
     17 C         139.4213  139.6073  160.1888 C.3     1  UNL1        0.0015
     18 C         140.4722  138.6687  160.7034 C.3     1  UNL1        0.0172
     19 C         140.2834  137.9826  162.0238 C.3     1  UNL1        0.0689
     20 N         141.3342  137.0441  162.5384 N.3     1  UNL1       -0.3209
     21 H         141.0436  136.6708  163.4421 H       1  UNL1        0.1189
     22 H         142.2156  137.5462  162.6456 H       1  UNL1        0.1189
     23 N         141.6636  140.7445  167.1329 N.pl3   1  UNL1       -0.2981
     24 H         142.1824  140.6488  167.9641 H       1  UNL1        0.1534
     25 C         142.1046  141.7193  166.0816 C.2     1  UNL1        0.0532
     26 C         143.4947  141.6425  165.5233 C.2     1  UNL1        0.0125
     27 C         143.9357  142.6172  164.4721 C.2     1  UNL1        0.0008
     28 C         142.9866  143.6690  163.9790 C.2     1  UNL1       -0.0020
     29 C         141.5965  143.7459  164.5373 C.2     1  UNL1        0.0067
     30 C         140.4483  144.6668  164.2482 C.2     1  UNL1        0.0182
     31 C         139.2977  144.2612  165.1208 C.2     1  UNL1        0.0936
     32 N         139.7348  143.0895  165.9492 N.2     1  UNL1       -0.2607
     33 C         141.1555  142.7710  165.5886 C.3     1  UNL1        0.1609
@<TRIPOS>BOND
     1     7     8   am
     2     8     9    2
     3     8     1    1
     4     1     2   ar
     5     2     3   ar
     6     3     4   ar
     7     4    12    1
     8    14    12    1
     9    14    15    1
    10    15    16    1
    11    16    17    1
    12    17    18    1
    13    18    19    1
    14    19    20    1
    15     4     5   ar
    16     5     6   ar
    17     6    23    1
    18    23    25    1
    19    25    26    2
    20    26    27    1
    21    27    28    2
    22    28    29    1
    23    29    30    2
    24    30    31    1
    25    31    32    2
    26    32    33    1
    27     6     1   ar
    28    33    25    1
    29    19    14    1
    30    33    29    1
    31     7    10    1
    32     7    11    1
    33    12    13    1
    34    20    21    1
    35    20    22    1
    36    23    24    1
@<TRIPOS>MOLECULE
*****
 33 36 0 0 0
SMALL
GASTEIGER

@<TRIPOS>ATOM
      1 C         139.3953  142.6051  158.3083 C.ar    1  UNL1        0.1658
      2 N         139.0808  141.2395  157.7734 N.ar    1  UNL1       -0.2335
      3 C         138.4100  140.2258  158.6525 C.ar    1  UNL1        0.1331
      4 C         138.0538  140.5778  160.0664 C.ar    1  UNL1        0.1493
      5 N         138.3683  141.9435  160.6013 N.ar    1  UNL1       -0.2128
      6 C         139.0390  142.9571  159.7223 C.ar    1  UNL1        0.1557
      7 N         139.5068  143.9201  156.0704 N.am    1  UNL1       -0.3240
      8 C         140.0659  143.6187  157.4292 C.2     1  UNL1        0.2633
      9 O         141.2959  144.3309  157.9091 O.2     1  UNL1       -0.2686
     10 H         139.9471  144.5854  155.4935 H       1  UNL1        0.1453
     11 H         138.6996  143.4527  155.7555 H       1  UNL1        0.1453
     12 N         137.3831  139.5643  160.9455 N.pl3   1  UNL1       -0.3171
     13 H         136.5721  139.1017  160.6333 H       1  UNL1        0.1482
     14 C         137.9482  139.2554  162.3002 C.3     1  UNL1        0.0845
     15 C         138.7978  138.0352  162.4981 C.3     1  UNL1        0.0209
     16 C         139.3628  137.7264  163.8529 C.3     1  UNL1        0.0018
     17 C         139.0782  138.6378  165.0098 C.3     1  UNL1        0.0015
     18 C         138.2286  139.8580  164.8118 C.3     1  UNL1        0.0172
     19 C         137.6636  140.1668  163.4572 C.3     1  UNL1        0.0689
     20 N         136.8139  141.3870  163.2592 N.3     1  UNL1       -0.3209
     21 H         136.5176  141.4405  162.2846 H       1  UNL1        0.1189
     22 H         137.3536  142.2193  163.4966 H       1  UNL1        0.1189
     23 N         139.3535  144.3228  160.2571 N.pl3   1  UNL1       -0.2981
     24 H         139.0553  145.1236  159.7682 H       1  UNL1        0.1534
     25 C         140.1223  144.4683  161.5369 C.2     1  UNL1        0.0532
     26 C         141.6141  144.6208  161.5024 C.2     1  UNL1        0.0125
     27 C         142.3829  144.7664  162.7820 C.2     1  UNL1        0.0008
     28 C         141.6600  144.7594  164.0963 C.2     1  UNL1       -0.0020
     29 C         140.1682  144.6068  164.1308 C.2     1  UNL1        0.0067
     30 C         139.1897  144.5642  165.2669 C.2     1  UNL1        0.0182
     31 C         137.8161  144.3923  164.6893 C.2     1  UNL1        0.0936
     32 N         137.9456  144.3287  163.1962 N.2     1  UNL1       -0.2607
     33 C         139.3993  144.4613  162.8511 C.3     1  UNL1        0.1609
@<TRIPOS>BOND
     1     7     8   am
     2     8     9    2
     3     8     1    1
     4     1     2   ar
     5     2     3   ar
     6     3     4   ar
     7     4    12    1
     8    14    12    1
     9    14    15    1
    10    15    16    1
    11    16    17    1
    12    17    18    1
    13    18    19    1
    14    19    20    1
    15     4     5   ar
    16     5     6   ar
    17     6    23    1
    18    23    25    1
    19    25    26    2
    20    26    27    1
    21    27    28    2
    22    28    29    1
    23    29    30    2
    24    30    31    1
    25    31    32    2
    26    32    33    1
    27     6     1   ar
    28    33    25    1
    29    19    14    1
    30    33    29    1
    31     7    10    1
    32     7    11    1
    33    12    13    1
    34    20    21    1
    35    20    22    1
    36    23    24    1
@<TRIPOS>MOLECULE
*****
 33 36 0 0 0
SMALL
GASTEIGER

@<TRIPOS>ATOM
      1 C         138.4128  140.0366  164.5455 C.ar    1  UNL1        0.1658
      2 N         137.7563  139.1316  165.5454 N.ar    1  UNL1       -0.2335
      3 C         138.2695  139.0723  166.9538 C.ar    1  UNL1        0.1331
      4 C         139.4391  139.9179  167.3620 C.ar    1  UNL1        0.1493
      5 N         140.0957  140.8230  166.3621 N.ar    1  UNL1       -0.2128
      6 C         139.5825  140.8823  164.9538 C.ar    1  UNL1        0.1557
      7 N         138.0045  138.8915  162.2495 N.am    1  UNL1       -0.3240
      8 C         137.8997  140.0959  163.1372 C.2     1  UNL1        0.2633
      9 O         137.2817  141.3598  162.6168 O.2     1  UNL1       -0.2686
     10 H         137.6677  138.9304  161.3252 H       1  UNL1        0.1453
     11 H         138.4101  138.0620  162.5911 H       1  UNL1        0.1453
     12 N         139.9522  139.8586  168.7703 N.pl3   1  UNL1       -0.3171
     13 H         139.6397  139.1505  169.3786 H       1  UNL1        0.1482
     14 C         140.9415  140.8783  169.2516 C.3     1  UNL1        0.0845
     15 C         140.4819  142.2629  169.6004 C.3     1  UNL1        0.0209
     16 C         141.4713  143.2825  170.0817 C.3     1  UNL1        0.0018
     17 C         142.9201  142.9175  170.2143 C.3     1  UNL1        0.0015
     18 C         143.3797  141.5328  169.8654 C.3     1  UNL1        0.0172
     19 C         142.3904  140.5133  169.3842 C.3     1  UNL1        0.0689
     20 N         142.8499  139.1286  169.0353 N.3     1  UNL1       -0.3209
     21 H         142.0515  138.5725  168.7291 H       1  UNL1        0.1189
     22 H         143.2724  138.6939  169.8556 H       1  UNL1        0.1189
     23 N         140.2390  141.7873  163.9539 N.pl3   1  UNL1       -0.2981
     24 H         139.7186  142.1475  163.1998 H       1  UNL1        0.1534
     25 C         141.6885  142.1436  164.1029 C.2     1  UNL1        0.0532
     26 C         142.0843  143.5513  164.4369 C.2     1  UNL1        0.0125
     27 C         143.5336  143.9076  164.5860 C.2     1  UNL1        0.0008
     28 C         144.5874  142.8562  164.4009 C.2     1  UNL1       -0.0020
     29 C         144.1916  141.4484  164.0669 C.2     1  UNL1        0.0067
     30 C         145.0007  140.2082  163.8279 C.2     1  UNL1        0.0182
     31 C         144.0514  139.0854  163.5312 C.2     1  UNL1        0.0936
     32 N         142.6555  139.6317  163.5868 N.2     1  UNL1       -0.2607
     33 C         142.7421  141.0921  163.9179 C.3     1  UNL1        0.1609
@<TRIPOS>BOND
     1     7     8   am
     2     8     9    2
     3     8     1    1
     4     1     2   ar
     5     2     3   ar
     6     3     4   ar
     7     4    12    1
     8    14    12    1
     9    14    15    1
    10    15    16    1
    11    16    17    1
    12    17    18    1
    13    18    19    1
    14    19    20    1
    15     4     5   ar
    16     5     6   ar
    17     6    23    1
    18    23    25    1
    19    25    26    2
    20    26    27    1
    21    27    28    2
    22    28    29    1
    23    29    30    2
    24    30    31    1
    25    31    32    2
    26    32    33    1
    27     6     1   ar
    28    33    25    1
    29    19    14    1
    30    33    29    1
    31     7    10    1
    32     7    11    1
    33    12    13    1
    34    20    21    1
    35    20    22    1
    36    23    24    1
