@<TRIPOS>MOLECULE
*****
 34 37 0 0 0
SMALL
GASTEIGER

@<TRIPOS>ATOM
      1 C         140.3159  143.0527  164.1133 C.ar    1  UNL1        0.0289
      2 C         140.0064  142.4261  162.7861 C.ar    1  UNL1        0.0145
      3 C         138.5901  142.3698  162.2953 C.ar    1  UNL1        0.0505
      4 C         137.4832  142.9403  163.1318 C.ar    1  UNL1        0.0170
      5 C         137.7928  143.5669  164.4590 C.ar    1  UNL1        0.0306
      6 C         139.2091  143.6232  164.9497 C.ar    1  UNL1        0.1380
      7 F         139.5187  144.2498  166.2769 F       1  UNL1       -0.2044
      8 N         142.0510  145.0682  161.1675 N.pl3   1  UNL1       -0.3380
      9 C         142.4168  144.4339  162.4767 C.2     1  UNL1        0.1482
     10 N         141.3664  143.7433  163.2950 N.2     1  UNL1       -0.2484
     11 C         141.7322  143.1090  164.6041 C.3     1  UNL1        0.1352
     12 C         140.6818  142.4184  165.4224 C.3     1  UNL1        0.1686
     13 O         141.0476  141.7841  166.7315 O.3     1  UNL1       -0.3514
     14 C         142.4640  141.8403  167.2223 C.3     1  UNL1        0.1424
     15 C         143.5144  142.5308  166.4040 C.3     1  UNL1        0.0352
     16 C         143.1485  143.1652  165.0949 C.3     1  UNL1        0.0408
     17 C         144.1990  143.8558  164.2765 C.3     1  UNL1        0.0672
     18 S         143.8332  144.4901  162.9675 S.3     1  UNL1       -0.0807
     19 H         141.1214  145.0314  160.8454 H       1  UNL1        0.1442
     20 H         142.7405  145.5215  160.6304 H       1  UNL1        0.1442
     21 N         138.2805  141.7432  160.9681 N.am    1  UNL1       -0.2791
     22 C         138.6339  142.4608  159.6992 C.2     1  UNL1        0.2672
     23 O         139.2969  143.8051  159.7575 O.2     1  UNL1       -0.2682
     24 H         137.8454  140.8609  160.9298 H       1  UNL1        0.1552
     25 C         138.3244  141.8342  158.3720 C.ar    1  UNL1        0.1350
     26 C         138.9457  140.5207  157.9997 C.ar    1  UNL1        0.0269
     27 C         138.6361  139.8940  156.6724 C.ar    1  UNL1        0.0404
     28 C         137.7053  140.5809  155.7175 C.ar    1  UNL1        0.1634
     29 C         137.0840  141.8944  156.0899 C.ar    1  UNL1        0.1359
     30 N         137.3936  142.5211  157.4171 N.ar    1  UNL1       -0.2361
     31 O         137.3958  139.9542  154.3904 O.3     1  UNL1       -0.4220
     32 C         136.2256  139.0257  154.2541 C.3     1  UNL1        0.5087
     33 F         134.8293  139.5738  154.2545 F       1  UNL1       -0.1550
     34 F         136.4517  137.5492  154.1174 F       1  UNL1       -0.1550
@<TRIPOS>BOND
     1     8     9    1
     2     9    10    2
     3    10    11    1
     4    11     1    1
     5     1     2   ar
     6     2     3   ar
     7     3    21    1
     8    21    22   am
     9    22    23    2
    10    22    25    1
    11    25    26   ar
    12    26    27   ar
    13    27    28   ar
    14    28    31    1
    15    31    32    1
    16    32    33    1
    17    32    34    1
    18    28    29   ar
    19    29    30   ar
    20     3     4   ar
    21     4     5   ar
    22     5     6   ar
    23     6     7    1
    24    11    12    1
    25    12    13    1
    26    13    14    1
    27    14    15    1
    28    16    15    1
    29    16    17    1
    30    17    18    1
    31    18     9    1
    32    16    11    1
    33     6     1   ar
    34    30    25   ar
    35     8    19    1
    36     8    20    1
    37    21    24    1
@<TRIPOS>MOLECULE
*****
 34 37 0 0 0
SMALL
GASTEIGER

@<TRIPOS>ATOM
      1 C         141.7043  140.2547  165.5995 C.ar    1  UNL1        0.0289
      2 C         141.3932  140.9734  164.3201 C.ar    1  UNL1        0.0145
      3 C         142.4339  141.0748  163.2447 C.ar    1  UNL1        0.0505
      4 C         143.7857  140.4575  163.4486 C.ar    1  UNL1        0.0170
      5 C         144.0968  139.7388  164.7279 C.ar    1  UNL1        0.0306
      6 C         143.0561  139.6375  165.8034 C.ar    1  UNL1        0.1380
      7 F         143.3671  138.9188  167.0827 F       1  UNL1       -0.2044
      8 N         143.3342  142.5032  168.4347 N.pl3   1  UNL1       -0.3380
      9 C         142.0971  141.6861  168.2066 C.2     1  UNL1        0.1482
     10 N         141.9007  140.9704  166.9031 N.2     1  UNL1       -0.2484
     11 C         140.6636  140.1534  166.6750 C.3     1  UNL1        0.1352
     12 C         140.4672  139.4377  165.3714 C.3     1  UNL1        0.1686
     13 O         139.2301  138.6207  165.1434 O.3     1  UNL1       -0.3514
     14 C         138.1894  138.5193  166.2189 C.3     1  UNL1        0.1424
     15 C         138.3858  139.2350  167.5224 C.3     1  UNL1        0.0352
     16 C         139.6229  140.0520  167.7504 C.3     1  UNL1        0.0408
     17 C         139.8193  140.7677  169.0540 C.3     1  UNL1        0.0672
     18 S         141.0563  141.5847  169.2821 S.3     1  UNL1       -0.0807
     19 H         144.0173  142.5697  167.7289 H       1  UNL1        0.1442
     20 H         143.4631  142.9729  169.2903 H       1  UNL1        0.1442
     21 N         142.1228  141.7935  161.9653 N.am    1  UNL1       -0.2791
     22 C         142.2255  143.2886  161.9009 C.2     1  UNL1        0.2672
     23 O         142.6392  144.0650  163.1158 O.2     1  UNL1       -0.2682
     24 H         141.8513  141.2839  161.1679 H       1  UNL1        0.1552
     25 C         141.9144  144.0073  160.6215 C.ar    1  UNL1        0.1350
     26 C         140.7154  144.9047  160.5379 C.ar    1  UNL1        0.0269
     27 C         140.4043  145.6234  159.2585 C.ar    1  UNL1        0.0404
     28 C         141.2922  145.4446  158.0628 C.ar    1  UNL1        0.1634
     29 C         142.4912  144.5471  158.1465 C.ar    1  UNL1        0.1359
     30 N         142.8023  143.8285  159.4258 N.ar    1  UNL1       -0.2361
     31 O         140.9811  146.1633  156.7835 O.3     1  UNL1       -0.4220
     32 C         139.5548  146.3870  156.3767 C.3     1  UNL1        0.5087
     33 F         138.9859  147.7750  156.3691 F       1  UNL1       -0.1550
     34 F         138.6973  145.2229  155.9774 F       1  UNL1       -0.1550
@<TRIPOS>BOND
     1     8     9    1
     2     9    10    2
     3    10    11    1
     4    11     1    1
     5     1     2   ar
     6     2     3   ar
     7     3    21    1
     8    21    22   am
     9    22    23    2
    10    22    25    1
    11    25    26   ar
    12    26    27   ar
    13    27    28   ar
    14    28    31    1
    15    31    32    1
    16    32    33    1
    17    32    34    1
    18    28    29   ar
    19    29    30   ar
    20     3     4   ar
    21     4     5   ar
    22     5     6   ar
    23     6     7    1
    24    11    12    1
    25    12    13    1
    26    13    14    1
    27    14    15    1
    28    16    15    1
    29    16    17    1
    30    17    18    1
    31    18     9    1
    32    16    11    1
    33     6     1   ar
    34    30    25   ar
    35     8    19    1
    36     8    20    1
    37    21    24    1
@<TRIPOS>MOLECULE
*****
 34 37 0 0 0
SMALL
GASTEIGER

@<TRIPOS>ATOM
      1 C         141.9588  140.2055  165.0303 C.ar    1  UNL1        0.0289
      2 C         141.5327  140.9834  163.8206 C.ar    1  UNL1        0.0145
      3 C         142.4379  141.0705  162.6277 C.ar    1  UNL1        0.0505
      4 C         143.7693  140.3796  162.6445 C.ar    1  UNL1        0.0170
      5 C         144.1954  139.6017  163.8542 C.ar    1  UNL1        0.0306
      6 C         143.2901  139.5146  165.0471 C.ar    1  UNL1        0.1380
      7 F         143.7162  138.7367  166.2567 F       1  UNL1       -0.2044
      8 N         138.8345  138.3242  163.4652 N.pl3   1  UNL1       -0.3380
      9 C         139.2725  138.8932  164.7822 C.2     1  UNL1        0.1482
     10 N         140.6156  139.5493  164.9062 N.2     1  UNL1       -0.2484
     11 C         141.0536  140.1184  166.2232 C.3     1  UNL1        0.1352
     12 C         142.3968  140.7745  166.3473 C.3     1  UNL1        0.1686
     13 O         142.8347  141.3435  167.6642 O.3     1  UNL1       -0.3514
     14 C         141.9295  141.2565  168.8571 C.3     1  UNL1        0.1424
     15 C         140.5863  140.6004  168.7330 C.3     1  UNL1        0.0352
     16 C         140.1484  140.0313  167.4161 C.3     1  UNL1        0.0408
     17 C         138.8052  139.3752  167.2920 C.3     1  UNL1        0.0672
     18 S         138.3672  138.8062  165.9751 S.3     1  UNL1       -0.0807
     19 H         139.4286  138.3813  162.6822 H       1  UNL1        0.1442
     20 H         137.9529  137.8935  163.3838 H       1  UNL1        0.1442
     21 N         142.0118  141.8484  161.4181 N.am    1  UNL1       -0.2791
     22 C         142.3470  143.3063  161.3076 C.2     1  UNL1        0.2672
     23 O         143.1082  143.9863  162.4068 O.2     1  UNL1       -0.2682
     24 H         141.5122  141.4021  160.6967 H       1  UNL1        0.1552
     25 C         141.9209  144.0842  160.0980 C.ar    1  UNL1        0.1350
     26 C         140.6494  144.8794  160.1272 C.ar    1  UNL1        0.0269
     27 C         140.2232  145.6573  158.9175 C.ar    1  UNL1        0.0404
     28 C         141.0687  145.6401  157.6786 C.ar    1  UNL1        0.1634
     29 C         142.3403  144.8449  157.6494 C.ar    1  UNL1        0.1359
     30 N         142.7664  144.0670  158.8590 N.ar    1  UNL1       -0.2361
     31 O         140.6426  146.4180  156.4690 O.3     1  UNL1       -0.4220
     32 C         139.2419  146.9456  156.3717 C.3     1  UNL1        0.5087
     33 F         138.8338  148.1433  157.1775 F       1  UNL1       -0.1550
     34 F         138.2491  146.2756  155.4687 F       1  UNL1       -0.1550
@<TRIPOS>BOND
     1     8     9    1
     2     9    10    2
     3    10    11    1
     4    11     1    1
     5     1     2   ar
     6     2     3   ar
     7     3    21    1
     8    21    22   am
     9    22    23    2
    10    22    25    1
    11    25    26   ar
    12    26    27   ar
    13    27    28   ar
    14    28    31    1
    15    31    32    1
    16    32    33    1
    17    32    34    1
    18    28    29   ar
    19    29    30   ar
    20     3     4   ar
    21     4     5   ar
    22     5     6   ar
    23     6     7    1
    24    11    12    1
    25    12    13    1
    26    13    14    1
    27    14    15    1
    28    16    15    1
    29    16    17    1
    30    17    18    1
    31    18     9    1
    32    16    11    1
    33     6     1   ar
    34    30    25   ar
    35     8    19    1
    36     8    20    1
    37    21    24    1
@<TRIPOS>MOLECULE
*****
 34 37 0 0 0
SMALL
GASTEIGER

@<TRIPOS>ATOM
      1 C         142.6963  142.2410  164.5328 C.ar    1  UNL1        0.0289
      2 C         142.4466  142.5433  163.0849 C.ar    1  UNL1        0.0145
      3 C         143.0652  143.7557  162.4544 C.ar    1  UNL1        0.0505
      4 C         143.9335  144.6657  163.2717 C.ar    1  UNL1        0.0170
      5 C         144.1832  144.3633  164.7195 C.ar    1  UNL1        0.0306
      6 C         143.5646  143.1510  165.3501 C.ar    1  UNL1        0.1380
      7 F         143.8143  142.8486  166.7979 F       1  UNL1       -0.2044
      8 N         144.3709  139.3467  162.3953 N.pl3   1  UNL1       -0.3380
      9 C         143.4003  139.5033  163.5282 C.2     1  UNL1        0.1482
     10 N         143.0483  140.8721  164.0304 N.2     1  UNL1       -0.2484
     11 C         142.0776  141.0287  165.1634 C.3     1  UNL1        0.1352
     12 C         141.7257  142.3976  165.6656 C.3     1  UNL1        0.1686
     13 O         140.7551  142.5541  166.7985 O.3     1  UNL1       -0.3514
     14 C         140.1364  141.3418  167.4290 C.3     1  UNL1        0.1424
     15 C         140.4884  139.9729  166.9268 C.3     1  UNL1        0.0352
     16 C         141.4590  139.8164  165.7939 C.3     1  UNL1        0.0408
     17 C         141.8110  138.4475  165.2916 C.3     1  UNL1        0.0672
     18 S         142.7816  138.2910  164.1587 S.3     1  UNL1       -0.0807
     19 H         144.7770  140.1424  161.9814 H       1  UNL1        0.1442
     20 H         144.6019  138.4483  162.0656 H       1  UNL1        0.1442
     21 N         142.8155  144.0580  161.0065 N.am    1  UNL1       -0.2791
     22 C         141.4958  144.6264  160.5758 C.2     1  UNL1        0.2672
     23 O         140.4259  144.8924  161.5929 O.2     1  UNL1       -0.2682
     24 H         143.5177  143.8834  160.3390 H       1  UNL1        0.1552
     25 C         141.2461  144.9287  159.1280 C.ar    1  UNL1        0.1350
     26 C         140.0139  144.4026  158.4536 C.ar    1  UNL1        0.0269
     27 C         139.7642  144.7049  157.0057 C.ar    1  UNL1        0.0404
     28 C         140.7467  145.5334  156.2323 C.ar    1  UNL1        0.1634
     29 C         141.9790  146.0595  156.9067 C.ar    1  UNL1        0.1359
     30 N         142.2287  145.7572  158.3545 N.ar    1  UNL1       -0.2361
     31 O         140.4971  145.8357  154.7844 O.3     1  UNL1       -0.4220
     32 C         139.9972  147.1899  154.3765 C.3     1  UNL1        0.5087
     33 F         140.7499  147.9910  153.3557 F       1  UNL1       -0.1550
     34 F         138.7447  147.7429  154.9891 F       1  UNL1       -0.1550
@<TRIPOS>BOND
     1     8     9    1
     2     9    10    2
     3    10    11    1
     4    11     1    1
     5     1     2   ar
     6     2     3   ar
     7     3    21    1
     8    21    22   am
     9    22    23    2
    10    22    25    1
    11    25    26   ar
    12    26    27   ar
    13    27    28   ar
    14    28    31    1
    15    31    32    1
    16    32    33    1
    17    32    34    1
    18    28    29   ar
    19    29    30   ar
    20     3     4   ar
    21     4     5   ar
    22     5     6   ar
    23     6     7    1
    24    11    12    1
    25    12    13    1
    26    13    14    1
    27    14    15    1
    28    16    15    1
    29    16    17    1
    30    17    18    1
    31    18     9    1
    32    16    11    1
    33     6     1   ar
    34    30    25   ar
    35     8    19    1
    36     8    20    1
    37    21    24    1
@<TRIPOS>MOLECULE
*****
 34 37 0 0 0
SMALL
GASTEIGER

@<TRIPOS>ATOM
      1 C         141.3261  142.6002  163.5745 C.ar    1  UNL1        0.0289
      2 C         141.3024  143.0194  162.1344 C.ar    1  UNL1        0.0145
      3 C         142.1833  144.1389  161.6646 C.ar    1  UNL1        0.0505
      4 C         143.0878  144.8393  162.6350 C.ar    1  UNL1        0.0170
      5 C         143.1114  144.4201  164.0750 C.ar    1  UNL1        0.0306
      6 C         142.2305  143.3006  164.5447 C.ar    1  UNL1        0.1380
      7 F         142.2541  142.8814  165.9848 F       1  UNL1       -0.2044
      8 N         137.7611  143.9238  162.4388 N.pl3   1  UNL1       -0.3380
      9 C         138.3622  142.7362  163.1305 C.2     1  UNL1        0.1482
     10 N         139.8441  142.6683  163.3525 N.2     1  UNL1       -0.2484
     11 C         140.4452  141.4807  164.0443 C.3     1  UNL1        0.1352
     12 C         141.9271  141.4127  164.2663 C.3     1  UNL1        0.1686
     13 O         142.5281  140.2252  164.9580 O.3     1  UNL1       -0.3514
     14 C         141.6472  139.1057  165.4278 C.3     1  UNL1        0.1424
     15 C         140.1653  139.1737  165.2058 C.3     1  UNL1        0.0352
     16 C         139.5643  140.3612  164.5141 C.3     1  UNL1        0.0408
     17 C         138.0823  140.4292  164.2921 C.3     1  UNL1        0.0672
     18 S         137.4813  141.6167  163.6003 S.3     1  UNL1       -0.0807
     19 H         138.3393  144.6586  162.1304 H       1  UNL1        0.1442
     20 H         136.7885  143.9684  162.2931 H       1  UNL1        0.1442
     21 N         142.1597  144.5581  160.2246 N.am    1  UNL1       -0.2791
     22 C         140.8892  145.0701  159.6132 C.2     1  UNL1        0.2672
     23 O         139.6423  145.1628  160.4419 O.2     1  UNL1       -0.2682
     24 H         142.9781  144.4973  159.6808 H       1  UNL1        0.1552
     25 C         140.8656  145.4893  158.1732 C.ar    1  UNL1        0.1350
     26 C         141.9709  145.0673  157.2511 C.ar    1  UNL1        0.0269
     27 C         141.9473  145.4865  155.8110 C.ar    1  UNL1        0.0404
     28 C         140.8185  146.3276  155.2931 C.ar    1  UNL1        0.1634
     29 C         139.7132  146.7496  156.2153 C.ar    1  UNL1        0.1359
     30 N         139.7368  146.3304  157.6553 N.ar    1  UNL1       -0.2361
     31 O         140.7949  146.7468  153.8531 O.3     1  UNL1       -0.4220
     32 C         140.5908  148.1890  153.4951 C.3     1  UNL1        0.5087
     33 F         139.3588  148.9094  153.9571 F       1  UNL1       -0.1550
     34 F         141.6186  148.9110  152.6750 F       1  UNL1       -0.1550
@<TRIPOS>BOND
     1     8     9    1
     2     9    10    2
     3    10    11    1
     4    11     1    1
     5     1     2   ar
     6     2     3   ar
     7     3    21    1
     8    21    22   am
     9    22    23    2
    10    22    25    1
    11    25    26   ar
    12    26    27   ar
    13    27    28   ar
    14    28    31    1
    15    31    32    1
    16    32    33    1
    17    32    34    1
    18    28    29   ar
    19    29    30   ar
    20     3     4   ar
    21     4     5   ar
    22     5     6   ar
    23     6     7    1
    24    11    12    1
    25    12    13    1
    26    13    14    1
    27    14    15    1
    28    16    15    1
    29    16    17    1
    30    17    18    1
    31    18     9    1
    32    16    11    1
    33     6     1   ar
    34    30    25   ar
    35     8    19    1
    36     8    20    1
    37    21    24    1
@<TRIPOS>MOLECULE
*****
 34 37 0 0 0
SMALL
GASTEIGER

@<TRIPOS>ATOM
      1 C         140.5985  143.0639  164.1023 C.ar    1  UNL1        0.0289
      2 C         140.5100  143.2263  162.6137 C.ar    1  UNL1        0.0145
      3 C         139.3843  144.0132  162.0108 C.ar    1  UNL1        0.0505
      4 C         138.3471  144.6377  162.8965 C.ar    1  UNL1        0.0170
      5 C         138.4356  144.4753  164.3850 C.ar    1  UNL1        0.0306
      6 C         139.5613  143.6883  164.9879 C.ar    1  UNL1        0.1380
      7 F         139.6499  143.5259  166.4764 F       1  UNL1       -0.2044
      8 N         143.7349  145.0879  162.7543 N.pl3   1  UNL1       -0.3380
      9 C         143.4398  143.8886  163.6056 C.2     1  UNL1        0.1482
     10 N         142.0192  143.4762  163.8540 N.2     1  UNL1       -0.2484
     11 C         141.7242  142.2769  164.7053 C.3     1  UNL1        0.1352
     12 C         140.3035  141.8646  164.9536 C.3     1  UNL1        0.1686
     13 O         140.0086  140.6653  165.8049 O.3     1  UNL1       -0.3514
     14 C         141.1343  139.8784  166.4078 C.3     1  UNL1        0.1424
     15 C         142.5549  140.2907  166.1595 C.3     1  UNL1        0.0352
     16 C         142.8499  141.4900  165.3082 C.3     1  UNL1        0.0408
     17 C         144.2706  141.9024  165.0598 C.3     1  UNL1        0.0672
     18 S         144.5655  143.1016  164.2086 S.3     1  UNL1       -0.0807
     19 H         142.9960  145.6044  162.3586 H       1  UNL1        0.1442
     20 H         144.6673  145.3585  162.5913 H       1  UNL1        0.1442
     21 N         139.2958  144.1757  160.5223 N.am    1  UNL1       -0.2791
     22 C         140.4508  144.7560  159.7611 C.2     1  UNL1        0.2672
     23 O         141.6942  145.1738  160.4885 O.2     1  UNL1       -0.2682
     24 H         138.4796  143.9015  160.0449 H       1  UNL1        0.1552
     25 C         140.3622  144.9185  158.2726 C.ar    1  UNL1        0.1350
     26 C         141.2224  145.9310  157.5762 C.ar    1  UNL1        0.0269
     27 C         141.1339  146.0935  156.0876 C.ar    1  UNL1        0.0404
     28 C         140.1852  145.2435  155.2955 C.ar    1  UNL1        0.1634
     29 C         139.3250  144.2310  155.9919 C.ar    1  UNL1        0.1359
     30 N         139.4135  144.0685  157.4805 N.ar    1  UNL1       -0.2361
     31 O         140.0966  145.4059  153.8070 O.3     1  UNL1       -0.4220
     32 C         141.0601  146.3063  153.0922 C.3     1  UNL1        0.5087
     33 F         142.4949  145.8971  152.9368 F       1  UNL1       -0.1550
     34 F         140.5890  147.6159  152.5328 F       1  UNL1       -0.1550
@<TRIPOS>BOND
     1     8     9    1
     2     9    10    2
     3    10    11    1
     4    11     1    1
     5     1     2   ar
     6     2     3   ar
     7     3    21    1
     8    21    22   am
     9    22    23    2
    10    22    25    1
    11    25    26   ar
    12    26    27   ar
    13    27    28   ar
    14    28    31    1
    15    31    32    1
    16    32    33    1
    17    32    34    1
    18    28    29   ar
    19    29    30   ar
    20     3     4   ar
    21     4     5   ar
    22     5     6   ar
    23     6     7    1
    24    11    12    1
    25    12    13    1
    26    13    14    1
    27    14    15    1
    28    16    15    1
    29    16    17    1
    30    17    18    1
    31    18     9    1
    32    16    11    1
    33     6     1   ar
    34    30    25   ar
    35     8    19    1
    36     8    20    1
    37    21    24    1
@<TRIPOS>MOLECULE
*****
 34 37 0 0 0
SMALL
GASTEIGER

@<TRIPOS>ATOM
      1 C         139.2023  141.4061  164.0255 C.ar    1  UNL1        0.0289
      2 C         139.8565  140.7451  162.8485 C.ar    1  UNL1        0.0145
      3 C         139.4464  141.1188  161.4549 C.ar    1  UNL1        0.0505
      4 C         138.3820  142.1534  161.2383 C.ar    1  UNL1        0.0170
      5 C         137.7279  142.8143  162.4153 C.ar    1  UNL1        0.0306
      6 C         138.1381  142.4407  163.8089 C.ar    1  UNL1        0.1380
      7 F         137.4840  143.1016  164.9858 F       1  UNL1       -0.2044
      8 N         142.3625  143.7530  164.5320 N.pl3   1  UNL1       -0.3380
      9 C         141.5825  142.7216  165.2923 C.2     1  UNL1        0.1482
     10 N         140.3925  142.0639  164.6589 N.2     1  UNL1       -0.2484
     11 C         139.6125  141.0325  165.4192 C.3     1  UNL1        0.1352
     12 C         138.4225  140.3748  164.7858 C.3     1  UNL1        0.1686
     13 O         137.6426  139.3434  165.5461 O.3     1  UNL1       -0.3514
     14 C         138.0527  138.9698  166.9397 C.3     1  UNL1        0.1424
     15 C         139.2428  139.6275  167.5730 C.3     1  UNL1        0.0352
     16 C         140.0226  140.6588  166.8128 C.3     1  UNL1        0.0408
     17 C         141.2128  141.3166  167.4461 C.3     1  UNL1        0.0672
     18 S         141.9926  142.3479  166.6859 S.3     1  UNL1       -0.0807
     19 H         142.0933  143.9983  163.6173 H       1  UNL1        0.1442
     20 H         143.1435  144.1847  164.9477 H       1  UNL1        0.1442
     21 N         140.1005  140.4579  160.2780 N.am    1  UNL1       -0.2791
     22 C         139.7691  139.0352  159.9368 C.2     1  UNL1        0.2672
     23 O         138.7836  138.2736  160.7727 O.2     1  UNL1       -0.2682
     24 H         140.7473  140.9578  159.7294 H       1  UNL1        0.1552
     25 C         140.4232  138.3743  158.7598 C.ar    1  UNL1        0.1350
     26 C         141.9125  138.1984  158.7305 C.ar    1  UNL1        0.0269
     27 C         142.5667  137.5375  157.5535 C.ar    1  UNL1        0.0404
     28 C         141.7315  137.0524  156.4059 C.ar    1  UNL1        0.1634
     29 C         140.2420  137.2283  156.4352 C.ar    1  UNL1        0.1359
     30 N         139.5879  137.8892  157.6122 N.ar    1  UNL1       -0.2361
     31 O         142.3856  136.3915  155.2289 O.3     1  UNL1       -0.4220
     32 C         143.7776  135.8468  155.3527 C.3     1  UNL1        0.5087
     33 F         143.9945  134.3703  155.5050 F       1  UNL1       -0.1550
     34 F         144.9529  136.7784  155.3242 F       1  UNL1       -0.1550
@<TRIPOS>BOND
     1     8     9    1
     2     9    10    2
     3    10    11    1
     4    11     1    1
     5     1     2   ar
     6     2     3   ar
     7     3    21    1
     8    21    22   am
     9    22    23    2
    10    22    25    1
    11    25    26   ar
    12    26    27   ar
    13    27    28   ar
    14    28    31    1
    15    31    32    1
    16    32    33    1
    17    32    34    1
    18    28    29   ar
    19    29    30   ar
    20     3     4   ar
    21     4     5   ar
    22     5     6   ar
    23     6     7    1
    24    11    12    1
    25    12    13    1
    26    13    14    1
    27    14    15    1
    28    16    15    1
    29    16    17    1
    30    17    18    1
    31    18     9    1
    32    16    11    1
    33     6     1   ar
    34    30    25   ar
    35     8    19    1
    36     8    20    1
    37    21    24    1
@<TRIPOS>MOLECULE
*****
 34 37 0 0 0
SMALL
GASTEIGER

@<TRIPOS>ATOM
      1 C         143.5508  142.1440  160.9157 C.ar    1  UNL1        0.0289
      2 C         144.5741  142.5588  159.9004 C.ar    1  UNL1        0.0145
      3 C         144.2474  142.4965  158.4377 C.ar    1  UNL1        0.0505
      4 C         142.8974  142.0196  157.9904 C.ar    1  UNL1        0.0170
      5 C         141.8742  141.6049  159.0057 C.ar    1  UNL1        0.0306
      6 C         142.2009  141.6671  160.4684 C.ar    1  UNL1        0.1380
      7 F         141.1776  141.2524  161.4837 F       1  UNL1       -0.2044
      8 N         144.3430  138.3291  161.6702 N.pl3   1  UNL1       -0.3380
      9 C         144.2968  139.6423  162.3938 C.2     1  UNL1        0.1482
     10 N         143.9238  140.8931  161.6548 N.2     1  UNL1       -0.2484
     11 C         143.8775  142.2063  162.3784 C.3     1  UNL1        0.1352
     12 C         143.5046  143.4571  161.6393 C.3     1  UNL1        0.1686
     13 O         143.4583  144.7702  162.3630 O.3     1  UNL1       -0.3514
     14 C         143.7850  144.8324  163.8256 C.3     1  UNL1        0.1424
     15 C         144.1580  143.5815  164.5647 C.3     1  UNL1        0.0352
     16 C         144.2042  142.2685  163.8410 C.3     1  UNL1        0.0408
     17 C         144.5772  141.0175  164.5801 C.3     1  UNL1        0.0672
     18 S         144.6235  139.7045  163.8565 S.3     1  UNL1       -0.0807
     19 H         144.1286  138.2882  160.7102 H       1  UNL1        0.1442
     20 H         144.5878  137.5081  162.1553 H       1  UNL1        0.1442
     21 N         145.2707  142.9112  157.4223 N.am    1  UNL1       -0.2791
     22 C         145.9370  141.8775  156.5636 C.2     1  UNL1        0.2672
     23 O         145.5800  140.4290  156.7203 O.2     1  UNL1       -0.2682
     24 H         145.5050  143.8619  157.3195 H       1  UNL1        0.1552
     25 C         146.9603  142.2922  155.5483 C.ar    1  UNL1        0.1350
     26 C         146.6209  143.3339  154.5238 C.ar    1  UNL1        0.0269
     27 C         147.6442  143.7487  153.5084 C.ar    1  UNL1        0.0404
     28 C         149.0068  143.1216  153.5175 C.ar    1  UNL1        0.1634
     29 C         149.3461  142.0798  154.5420 C.ar    1  UNL1        0.1359
     30 N         148.3229  141.6651  155.5574 N.ar    1  UNL1       -0.2361
     31 O         150.0300  143.5363  152.5022 O.3     1  UNL1       -0.4220
     32 C         151.4862  143.5364  152.8618 C.3     1  UNL1        0.5087
     33 F         152.1325  144.7899  153.3730 F       1  UNL1       -0.1550
     34 F         152.2962  142.2830  152.7104 F       1  UNL1       -0.1550
@<TRIPOS>BOND
     1     8     9    1
     2     9    10    2
     3    10    11    1
     4    11     1    1
     5     1     2   ar
     6     2     3   ar
     7     3    21    1
     8    21    22   am
     9    22    23    2
    10    22    25    1
    11    25    26   ar
    12    26    27   ar
    13    27    28   ar
    14    28    31    1
    15    31    32    1
    16    32    33    1
    17    32    34    1
    18    28    29   ar
    19    29    30   ar
    20     3     4   ar
    21     4     5   ar
    22     5     6   ar
    23     6     7    1
    24    11    12    1
    25    12    13    1
    26    13    14    1
    27    14    15    1
    28    16    15    1
    29    16    17    1
    30    17    18    1
    31    18     9    1
    32    16    11    1
    33     6     1   ar
    34    30    25   ar
    35     8    19    1
    36     8    20    1
    37    21    24    1
@<TRIPOS>MOLECULE
*****
 34 37 0 0 0
SMALL
GASTEIGER

@<TRIPOS>ATOM
      1 C         139.8209  141.1325  163.6516 C.ar    1  UNL1        0.0289
      2 C         140.1319  142.0014  162.4690 C.ar    1  UNL1        0.0145
      3 C         139.0845  142.9244  161.9204 C.ar    1  UNL1        0.0505
      4 C         137.7261  142.9786  162.5543 C.ar    1  UNL1        0.0170
      5 C         137.4151  142.1097  163.7368 C.ar    1  UNL1        0.0306
      6 C         138.4625  141.1867  164.2854 C.ar    1  UNL1        0.1380
      7 F         138.1515  140.3178  165.4679 F       1  UNL1       -0.2044
      8 N         138.4981  137.6300  162.3349 N.pl3   1  UNL1       -0.3380
      9 C         139.6373  138.1822  163.1396 C.2     1  UNL1        0.1482
     10 N         139.7290  139.6573  163.3956 N.2     1  UNL1       -0.2484
     11 C         140.8682  140.2095  164.2002 C.3     1  UNL1        0.1352
     12 C         140.9600  141.6846  164.4562 C.3     1  UNL1        0.1686
     13 O         142.0992  142.2367  165.2609 O.3     1  UNL1       -0.3514
     14 C         143.1465  141.3137  165.8095 C.3     1  UNL1        0.1424
     15 C         143.0548  139.8386  165.5535 C.3     1  UNL1        0.0352
     16 C         141.9156  139.2865  164.7489 C.3     1  UNL1        0.0408
     17 C         141.8238  137.8113  164.4928 C.3     1  UNL1        0.0672
     18 S         140.6847  137.2592  163.6882 S.3     1  UNL1       -0.0807
     19 H         137.8106  138.2358  161.9748 H       1  UNL1        0.1442
     20 H         138.4379  136.6619  162.1669 H       1  UNL1        0.1442
     21 N         139.3955  143.7933  160.7379 N.am    1  UNL1       -0.2791
     22 C         139.2878  143.2366  159.3491 C.2     1  UNL1        0.2672
     23 O         138.8691  141.8110  159.1430 O.2     1  UNL1       -0.2682
     24 H         139.6703  144.7289  160.8732 H       1  UNL1        0.1552
     25 C         139.5988  144.1054  158.1666 C.ar    1  UNL1        0.1350
     26 C         140.3541  145.3874  158.3559 C.ar    1  UNL1        0.0269
     27 C         140.6652  146.2563  157.1734 C.ar    1  UNL1        0.0404
     28 C         140.2208  145.8432  155.8016 C.ar    1  UNL1        0.1634
     29 C         139.4655  144.5611  155.6123 C.ar    1  UNL1        0.1359
     30 N         139.1545  143.6922  156.7948 N.ar    1  UNL1       -0.2361
     31 O         140.5318  146.7120  154.6191 O.3     1  UNL1       -0.4220
     32 C         139.8353  148.0301  154.4531 C.3     1  UNL1        0.5087
     33 F         139.1434  148.6653  155.6226 F       1  UNL1       -0.1550
     34 F         139.8307  148.7129  153.1175 F       1  UNL1       -0.1550
@<TRIPOS>BOND
     1     8     9    1
     2     9    10    2
     3    10    11    1
     4    11     1    1
     5     1     2   ar
     6     2     3   ar
     7     3    21    1
     8    21    22   am
     9    22    23    2
    10    22    25    1
    11    25    26   ar
    12    26    27   ar
    13    27    28   ar
    14    28    31    1
    15    31    32    1
    16    32    33    1
    17    32    34    1
    18    28    29   ar
    19    29    30   ar
    20     3     4   ar
    21     4     5   ar
    22     5     6   ar
    23     6     7    1
    24    11    12    1
    25    12    13    1
    26    13    14    1
    27    14    15    1
    28    16    15    1
    29    16    17    1
    30    17    18    1
    31    18     9    1
    32    16    11    1
    33     6     1   ar
    34    30    25   ar
    35     8    19    1
    36     8    20    1
    37    21    24    1
