@<TRIPOS>MOLECULE
*****
 41 45 0 0 0
SMALL
GASTEIGER

@<TRIPOS>ATOM
      1 C         142.5346  144.1859  162.7795 C.2     1  UNL1        0.2251
      2 O         143.6117  145.1468  163.1877 O.2     1  UNL1       -0.2749
      3 N         142.0999  143.1023  163.7211 N.am    1  UNL1       -0.2794
      4 C         141.0229  142.1414  163.3129 C.3     1  UNL1        0.0954
      5 C         140.5881  141.0577  164.2546 C.3     1  UNL1        0.0441
      6 C         141.2306  140.9349  165.6045 C.3     1  UNL1        0.0856
      7 C         142.3077  141.8959  166.0127 C.3     1  UNL1        0.0441
      8 C         142.7423  142.9795  165.0711 C.3     1  UNL1        0.0954
      9 C         140.6074  144.5543  158.7298 C.3     1  UNL1        0.0542
     10 C         141.7659  143.6222  158.9271 C.3     1  UNL1        0.0162
     11 C         142.4083  143.4994  160.2770 C.3     1  UNL1        0.0104
     12 C         141.8922  144.3087  161.4296 C.3     1  UNL1        0.0768
     13 C         140.7336  145.2409  161.2323 C.3     1  UNL1        0.0095
     14 C         139.6699  146.2524  161.5411 C.3     1  UNL1        0.0005
     15 C         141.0066  145.4693  162.6894 C.3     1  UNL1        0.0005
     16 C         140.0912  145.3637  159.8824 C.3     1  UNL1        0.0162
     17 N         139.9650  144.6771  157.3799 N.3     1  UNL1       -0.2962
     18 H         139.9602  143.7431  156.9700 H       1  UNL1        0.1235
     19 C         140.5510  145.5983  156.3514 C.3     1  UNL1        0.0768
     20 C         141.7644  145.1805  155.5749 C.3     1  UNL1        0.0220
     21 C         138.6688  149.6152  155.5954 C.ar    1  UNL1        0.1387
     22 C         138.4369  148.9118  156.8997 C.ar    1  UNL1        0.0366
     23 C         139.0643  147.5729  157.1517 C.ar    1  UNL1        0.0001
     24 C         139.9236  146.9373  156.0994 C.ar    1  UNL1       -0.0078
     25 C         140.1556  147.6407  154.7950 C.ar    1  UNL1        0.0001
     26 C         139.5282  148.9797  154.5430 C.ar    1  UNL1        0.0366
     27 C         138.8347  152.0414  154.6811 C.3     1  UNL1        0.2525
     28 O         138.0414  150.9542  155.3434 O.3     1  UNL1       -0.4714
     29 N         140.2594  139.7938  165.6734 N.am    1  UNL1       -0.2455
     30 C         138.9800  139.9432  166.4420 C.3     1  UNL1        0.1008
     31 C         138.0089  138.8021  166.5109 C.3     1  UNL1        0.0691
     32 C         138.3172  137.5116  165.8112 C.3     1  UNL1        0.2119
     33 O         139.5966  137.3622  165.0426 O.3     1  UNL1       -0.4345
     34 C         140.5677  138.5034  164.9737 C.2     1  UNL1        0.4050
     35 O         141.8472  138.3540  164.2051 O.2     1  UNL1       -0.2262
     36 C         141.5357  140.4159  166.9783 C.ar    1  UNL1       -0.0059
     37 C         140.7756  140.9356  168.1624 C.ar    1  UNL1       -0.0027
     38 C         141.0807  140.4164  169.5363 C.ar    1  UNL1       -0.0003
     39 C         142.1460  139.3777  169.7260 C.ar    1  UNL1       -0.0000
     40 C         142.9061  138.8580  168.5419 C.ar    1  UNL1       -0.0003
     41 C         142.6010  139.3770  167.1681 C.ar    1  UNL1       -0.0027
@<TRIPOS>BOND
     1    27    28    1
     2    28    21    1
     3    21    22   ar
     4    22    23   ar
     5    23    24   ar
     6    24    19    1
     7    19    20    1
     8    19    17    1
     9     9    17    1
    10     9    10    1
    11    10    11    1
    12    11    12    1
    13    12     1    1
    14     1     2    2
    15     1     3   am
    16     3     4    1
    17     4     5    1
    18     5     6    1
    19     6    36    1
    20    36    37   ar
    21    37    38   ar
    22    38    39   ar
    23    39    40   ar
    24    40    41   ar
    25     6    29    1
    26    29    30    1
    27    30    31    1
    28    31    32    1
    29    32    33    1
    30    33    34    1
    31    34    35    2
    32     6     7    1
    33     7     8    1
    34    12    13    1
    35    13    14    1
    36    13    15    1
    37    13    16    1
    38    24    25   ar
    39    25    26   ar
    40    26    21   ar
    41    16     9    1
    42     8     3    1
    43    41    36   ar
    44    34    29   am
    45    17    18    1
@<TRIPOS>MOLECULE
*****
 41 45 0 0 0
SMALL
GASTEIGER

@<TRIPOS>ATOM
      1 C         142.4465  144.1599  162.9209 C.2     1  UNL1        0.2251
      2 O         143.5109  145.1312  163.3378 O.2     1  UNL1       -0.2749
      3 N         142.0229  143.0651  163.8547 N.am    1  UNL1       -0.2794
      4 C         140.9585  142.0938  163.4378 C.3     1  UNL1        0.0954
      5 C         140.5349  140.9989  164.3715 C.3     1  UNL1        0.0441
      6 C         141.1756  140.8754  165.7221 C.3     1  UNL1        0.0856
      7 C         142.2400  141.8467  166.1390 C.3     1  UNL1        0.0441
      8 C         142.6636  142.9415  165.2053 C.3     1  UNL1        0.0954
      9 C         140.5242  144.5307  158.8691 C.3     1  UNL1        0.0542
     10 C         141.6739  143.5885  159.0704 C.3     1  UNL1        0.0162
     11 C         142.3146  143.4649  160.4210 C.3     1  UNL1        0.0104
     12 C         141.8057  144.2835  161.5703 C.3     1  UNL1        0.0768
     13 C         140.6560  145.2257  161.3690 C.3     1  UNL1        0.0095
     14 C         139.6017  146.2483  161.6735 C.3     1  UNL1        0.0005
     15 C         140.9306  145.4572  162.8254 C.3     1  UNL1        0.0005
     16 C         140.0152  145.3493  160.0184 C.3     1  UNL1        0.0162
     17 N         139.8835  144.6543  157.5185 N.3     1  UNL1       -0.2962
     18 H         139.8350  143.7131  157.1284 H       1  UNL1        0.1235
     19 C         140.5073  145.5262  156.4694 C.3     1  UNL1        0.0768
     20 C         141.7222  145.0541  155.7272 C.3     1  UNL1        0.0220
     21 C         138.7336  149.5581  155.5487 C.ar    1  UNL1        0.1387
     22 C         139.5916  148.8662  154.5314 C.ar    1  UNL1        0.0366
     23 C         140.1828  147.5222  154.8383 C.ar    1  UNL1        0.0001
     24 C         139.9160  146.8702  156.1625 C.ar    1  UNL1       -0.0078
     25 C         139.0580  147.5621  157.1798 C.ar    1  UNL1        0.0001
     26 C         138.4668  148.9061  156.8730 C.ar    1  UNL1        0.0366
     27 C         139.0286  152.0273  154.7964 C.3     1  UNL1        0.2525
     28 O         138.1424  150.9021  155.2419 O.3     1  UNL1       -0.4714
     29 N         140.2183  139.7221  165.7814 N.am    1  UNL1       -0.2455
     30 C         138.9340  139.8520  166.5455 C.3     1  UNL1        0.1008
     31 C         137.9767  138.6987  166.6048 C.3     1  UNL1        0.0691
     32 C         138.3037  137.4156  165.9001 C.3     1  UNL1        0.2119
     33 O         139.5880  137.2857  165.1360 O.3     1  UNL1       -0.4345
     34 C         140.5453  138.4390  165.0767 C.2     1  UNL1        0.4050
     35 O         141.8296  138.3091  164.3127 O.2     1  UNL1       -0.2262
     36 C         141.4839  140.3513  167.0933 C.ar    1  UNL1       -0.0059
     37 C         142.6073  139.3767  167.2887 C.ar    1  UNL1       -0.0027
     38 C         142.9156  138.8526  168.6600 C.ar    1  UNL1       -0.0003
     39 C         142.1005  139.3030  169.8358 C.ar    1  UNL1       -0.0000
     40 C         140.9771  140.2776  169.6404 C.ar    1  UNL1       -0.0003
     41 C         140.6688  140.8017  168.2692 C.ar    1  UNL1       -0.0027
@<TRIPOS>BOND
     1    27    28    1
     2    28    21    1
     3    21    22   ar
     4    22    23   ar
     5    23    24   ar
     6    24    19    1
     7    19    20    1
     8    19    17    1
     9     9    17    1
    10     9    10    1
    11    10    11    1
    12    11    12    1
    13    12     1    1
    14     1     2    2
    15     1     3   am
    16     3     4    1
    17     4     5    1
    18     5     6    1
    19     6    36    1
    20    36    37   ar
    21    37    38   ar
    22    38    39   ar
    23    39    40   ar
    24    40    41   ar
    25     6    29    1
    26    29    30    1
    27    30    31    1
    28    31    32    1
    29    32    33    1
    30    33    34    1
    31    34    35    2
    32     6     7    1
    33     7     8    1
    34    12    13    1
    35    13    14    1
    36    13    15    1
    37    13    16    1
    38    24    25   ar
    39    25    26   ar
    40    26    21   ar
    41    16     9    1
    42     8     3    1
    43    41    36   ar
    44    34    29   am
    45    17    18    1
@<TRIPOS>MOLECULE
*****
 41 45 0 0 0
SMALL
GASTEIGER

@<TRIPOS>ATOM
      1 C         142.6834  144.2015  163.1855 C.2     1  UNL1        0.2251
      2 O         143.7070  145.1771  163.6862 O.2     1  UNL1       -0.2749
      3 N         142.2087  143.0903  164.0742 N.am    1  UNL1       -0.2794
      4 C         141.1852  142.1148  163.5735 C.3     1  UNL1        0.0954
      5 C         140.7103  141.0036  164.4622 C.3     1  UNL1        0.0441
      6 C         141.2591  140.8679  165.8516 C.3     1  UNL1        0.0856
      7 C         142.2827  141.8434  166.3523 C.3     1  UNL1        0.0441
      8 C         142.7575  142.9546  165.4636 C.3     1  UNL1        0.0954
      9 C         141.0371  144.6086  159.0173 C.3     1  UNL1        0.0542
     10 C         142.2221  143.7251  159.2727 C.3     1  UNL1        0.0162
     11 C         142.7709  143.5894  160.6621 C.3     1  UNL1        0.0104
     12 C         142.1347  144.3372  161.7961 C.3     1  UNL1        0.0768
     13 C         140.9496  145.2207  161.5407 C.3     1  UNL1        0.0095
     14 C         139.8188  146.1718  161.7990 C.3     1  UNL1        0.0005
     15 C         141.1057  145.4153  163.0198 C.3     1  UNL1        0.0005
     16 C         140.4008  145.3564  160.1513 C.3     1  UNL1        0.0162
     17 N         140.4883  144.7442  157.6279 N.3     1  UNL1       -0.2962
     18 H         139.9204  145.5915  157.6170 H       1  UNL1        0.1235
     19 C         139.6445  143.6499  157.0446 C.3     1  UNL1        0.0768
     20 C         138.8925  143.8824  155.7678 C.3     1  UNL1        0.0220
     21 C         139.3689  139.6694  159.1254 C.ar    1  UNL1        0.1387
     22 C         138.5025  140.8100  159.5707 C.ar    1  UNL1        0.0366
     23 C         138.5944  142.1368  158.8771 C.ar    1  UNL1        0.0001
     24 C         139.5526  142.3230  157.7382 C.ar    1  UNL1       -0.0078
     25 C         140.4190  141.1824  157.2929 C.ar    1  UNL1        0.0001
     26 C         140.3271  139.8556  157.9865 C.ar    1  UNL1        0.0366
     27 C         139.2698  138.2785  161.3175 C.3     1  UNL1        0.2525
     28 O         139.2771  138.3425  159.8189 O.3     1  UNL1       -0.4714
     29 N         140.3119  139.7050  165.8309 N.am    1  UNL1       -0.2455
     30 C         138.9762  139.8136  166.5048 C.3     1  UNL1        0.1008
     31 C         138.0290  138.6507  166.4842 C.3     1  UNL1        0.0691
     32 C         138.4174  137.3792  165.7896 C.3     1  UNL1        0.2119
     33 O         139.7531  137.2706  165.1157 O.3     1  UNL1       -0.4345
     34 C         140.7004  138.4335  165.1364 C.2     1  UNL1        0.4050
     35 O         142.0361  138.3249  164.4625 O.2     1  UNL1       -0.2262
     36 C         141.4789  140.3283  167.2338 C.ar    1  UNL1       -0.0059
     37 C         142.6286  139.4034  167.5038 C.ar    1  UNL1       -0.0027
     38 C         142.8484  138.8639  168.8861 C.ar    1  UNL1       -0.0003
     39 C         141.9187  139.2492  169.9983 C.ar    1  UNL1       -0.0000
     40 C         140.7690  140.1741  169.7282 C.ar    1  UNL1       -0.0003
     41 C         140.5491  140.7137  168.3460 C.ar    1  UNL1       -0.0027
@<TRIPOS>BOND
     1    27    28    1
     2    28    21    1
     3    21    22   ar
     4    22    23   ar
     5    23    24   ar
     6    24    19    1
     7    19    20    1
     8    19    17    1
     9     9    17    1
    10     9    10    1
    11    10    11    1
    12    11    12    1
    13    12     1    1
    14     1     2    2
    15     1     3   am
    16     3     4    1
    17     4     5    1
    18     5     6    1
    19     6    36    1
    20    36    37   ar
    21    37    38   ar
    22    38    39   ar
    23    39    40   ar
    24    40    41   ar
    25     6    29    1
    26    29    30    1
    27    30    31    1
    28    31    32    1
    29    32    33    1
    30    33    34    1
    31    34    35    2
    32     6     7    1
    33     7     8    1
    34    12    13    1
    35    13    14    1
    36    13    15    1
    37    13    16    1
    38    24    25   ar
    39    25    26   ar
    40    26    21   ar
    41    16     9    1
    42     8     3    1
    43    41    36   ar
    44    34    29   am
    45    17    18    1
@<TRIPOS>MOLECULE
*****
 41 45 0 0 0
SMALL
GASTEIGER

@<TRIPOS>ATOM
      1 C         142.6599  144.2222  163.1267 C.2     1  UNL1        0.2251
      2 O         143.6992  145.1863  163.6170 O.2     1  UNL1       -0.2749
      3 N         142.1903  143.1093  164.0160 N.am    1  UNL1       -0.2794
      4 C         141.1511  142.1452  163.5257 C.3     1  UNL1        0.0954
      5 C         140.6815  141.0322  164.4150 C.3     1  UNL1        0.0441
      6 C         141.2512  140.8834  165.7946 C.3     1  UNL1        0.0856
      7 C         142.2905  141.8476  166.2849 C.3     1  UNL1        0.0441
      8 C         142.7600  142.9605  165.3956 C.3     1  UNL1        0.0954
      9 C         140.9509  144.6686  158.9879 C.3     1  UNL1        0.0542
     10 C         142.1288  143.7694  159.2199 C.3     1  UNL1        0.0162
     11 C         142.6985  143.6206  160.5995 C.3     1  UNL1        0.0104
     12 C         142.0902  144.3710  161.7471 C.3     1  UNL1        0.0768
     13 C         140.9122  145.2702  161.5150 C.3     1  UNL1        0.0095
     14 C         139.7977  146.2340  161.7960 C.3     1  UNL1        0.0005
     15 C         141.0948  145.4561  162.9922 C.3     1  UNL1        0.0005
     16 C         140.3426  145.4190  160.1354 C.3     1  UNL1        0.0162
     17 N         140.3812  144.8174  157.6082 N.3     1  UNL1       -0.2962
     18 H         139.4406  145.1966  157.7174 H       1  UNL1        0.1235
     19 C         140.2642  143.6204  156.7120 C.3     1  UNL1        0.0768
     20 C         141.3788  143.2782  155.7684 C.3     1  UNL1        0.0220
     21 C         136.5692  141.0558  156.8542 C.ar    1  UNL1        0.1387
     22 C         137.6851  140.8180  157.8279 C.ar    1  UNL1        0.0366
     23 C         138.9168  141.6729  157.7805 C.ar    1  UNL1        0.0001
     24 C         139.0325  142.7655  156.7594 C.ar    1  UNL1       -0.0078
     25 C         137.9166  143.0032  155.7857 C.ar    1  UNL1        0.0001
     26 C         136.6850  142.1484  155.8331 C.ar    1  UNL1        0.0366
     27 C         134.1527  140.5447  156.0485 C.3     1  UNL1        0.2525
     28 O         135.3376  140.2009  156.9016 O.3     1  UNL1       -0.4714
     29 N         140.2943  139.7283  165.7819 N.am    1  UNL1       -0.2455
     30 C         138.9617  139.8507  166.4596 C.3     1  UNL1        0.1008
     31 C         138.0049  138.6956  166.4468 C.3     1  UNL1        0.0691
     32 C         138.3806  137.4181  165.7565 C.3     1  UNL1        0.2119
     33 O         139.7132  137.2956  165.0788 O.3     1  UNL1       -0.4345
     34 C         140.6701  138.4507  165.0915 C.2     1  UNL1        0.4050
     35 O         142.0027  138.3283  164.4138 O.2     1  UNL1       -0.2262
     36 C         141.4885  140.3334  167.1698 C.ar    1  UNL1       -0.0059
     37 C         142.6470  139.4141  167.4202 C.ar    1  UNL1       -0.0027
     38 C         142.8844  138.8641  168.7954 C.ar    1  UNL1       -0.0003
     39 C         141.9633  139.2334  169.9202 C.ar    1  UNL1       -0.0000
     40 C         140.8049  140.1528  169.6697 C.ar    1  UNL1       -0.0003
     41 C         140.5674  140.7028  168.2946 C.ar    1  UNL1       -0.0027
@<TRIPOS>BOND
     1    27    28    1
     2    28    21    1
     3    21    22   ar
     4    22    23   ar
     5    23    24   ar
     6    24    19    1
     7    19    20    1
     8    19    17    1
     9     9    17    1
    10     9    10    1
    11    10    11    1
    12    11    12    1
    13    12     1    1
    14     1     2    2
    15     1     3   am
    16     3     4    1
    17     4     5    1
    18     5     6    1
    19     6    36    1
    20    36    37   ar
    21    37    38   ar
    22    38    39   ar
    23    39    40   ar
    24    40    41   ar
    25     6    29    1
    26    29    30    1
    27    30    31    1
    28    31    32    1
    29    32    33    1
    30    33    34    1
    31    34    35    2
    32     6     7    1
    33     7     8    1
    34    12    13    1
    35    13    14    1
    36    13    15    1
    37    13    16    1
    38    24    25   ar
    39    25    26   ar
    40    26    21   ar
    41    16     9    1
    42     8     3    1
    43    41    36   ar
    44    34    29   am
    45    17    18    1
@<TRIPOS>MOLECULE
*****
 41 45 0 0 0
SMALL
GASTEIGER

@<TRIPOS>ATOM
      1 C         142.9934  143.9747  162.3662 C.2     1  UNL1        0.2251
      2 O         144.0167  144.9904  162.7802 O.2     1  UNL1       -0.2749
      3 N         142.4626  142.9933  163.3687 N.am    1  UNL1       -0.2794
      4 C         141.4393  141.9777  162.9548 C.3     1  UNL1        0.0954
      5 C         140.9085  140.9962  163.9573 C.3     1  UNL1        0.0441
      6 C         141.4010  141.0304  165.3737 C.3     1  UNL1        0.0856
      7 C         142.4243  142.0461  165.7877 C.3     1  UNL1        0.0441
      8 C         142.9551  143.0275  164.7852 C.3     1  UNL1        0.0954
      9 C         141.5159  143.8722  158.1169 C.3     1  UNL1        0.0542
     10 C         140.7497  144.6314  159.1593 C.3     1  UNL1        0.0162
     11 C         141.2422  144.6656  160.5757 C.3     1  UNL1        0.0104
     12 C         142.5009  143.9405  160.9498 C.3     1  UNL1        0.0768
     13 C         143.2671  143.1813  159.9075 C.3     1  UNL1        0.0095
     14 C         144.3329  142.3314  159.2815 C.3     1  UNL1        0.0005
     15 C         144.1298  142.9203  161.1065 C.3     1  UNL1        0.0005
     16 C         142.7747  143.1471  158.4910 C.3     1  UNL1        0.0162
     17 N         141.0234  143.8380  156.7005 N.3     1  UNL1       -0.2962
     18 H         141.6328  144.4536  156.1619 H       1  UNL1        0.1235
     19 C         139.6133  144.2419  156.3868 C.3     1  UNL1        0.0768
     20 C         139.3010  145.6675  156.0403 C.3     1  UNL1        0.0220
     21 C         136.3199  141.1770  156.4852 C.ar    1  UNL1        0.1387
     22 C         136.2699  142.3000  155.4921 C.ar    1  UNL1        0.0366
     23 C         137.3677  143.3216  155.4593 C.ar    1  UNL1        0.0001
     24 C         138.5155  143.2203  156.4196 C.ar    1  UNL1       -0.0078
     25 C         138.5655  142.0972  157.4127 C.ar    1  UNL1        0.0001
     26 C         137.4677  141.0756  157.4455 C.ar    1  UNL1        0.0366
     27 C         134.4486  139.8453  155.2708 C.3     1  UNL1        0.2525
     28 O         135.2221  140.1553  156.5180 O.3     1  UNL1       -0.4714
     29 N         140.4319  139.8889  165.4624 N.am    1  UNL1       -0.2455
     30 C         139.0960  140.0882  166.1149 C.3     1  UNL1        0.1008
     31 C         138.1269  138.9468  166.2036 C.3     1  UNL1        0.0691
     32 C         138.4935  137.6061  165.6397 C.3     1  UNL1        0.2119
     33 O         139.8294  137.4068  164.9872 O.3     1  UNL1       -0.4345
     34 C         140.7985  138.5482  164.8985 C.2     1  UNL1        0.4050
     35 O         142.1344  138.3489  164.2459 O.2     1  UNL1       -0.2262
     36 C         141.5569  140.6682  166.8209 C.ar    1  UNL1       -0.0059
     37 C         140.7688  141.4002  167.8664 C.ar    1  UNL1       -0.0027
     38 C         140.9248  141.0380  169.3137 C.ar    1  UNL1       -0.0003
     39 C         141.8687  139.9438  169.7154 C.ar    1  UNL1       -0.0000
     40 C         142.6568  139.2117  168.6700 C.ar    1  UNL1       -0.0003
     41 C         142.5009  139.5739  167.2227 C.ar    1  UNL1       -0.0027
@<TRIPOS>BOND
     1    27    28    1
     2    28    21    1
     3    21    22   ar
     4    22    23   ar
     5    23    24   ar
     6    24    19    1
     7    19    20    1
     8    19    17    1
     9     9    17    1
    10     9    10    1
    11    10    11    1
    12    11    12    1
    13    12     1    1
    14     1     2    2
    15     1     3   am
    16     3     4    1
    17     4     5    1
    18     5     6    1
    19     6    36    1
    20    36    37   ar
    21    37    38   ar
    22    38    39   ar
    23    39    40   ar
    24    40    41   ar
    25     6    29    1
    26    29    30    1
    27    30    31    1
    28    31    32    1
    29    32    33    1
    30    33    34    1
    31    34    35    2
    32     6     7    1
    33     7     8    1
    34    12    13    1
    35    13    14    1
    36    13    15    1
    37    13    16    1
    38    24    25   ar
    39    25    26   ar
    40    26    21   ar
    41    16     9    1
    42     8     3    1
    43    41    36   ar
    44    34    29   am
    45    17    18    1
@<TRIPOS>MOLECULE
*****
 41 45 0 0 0
SMALL
GASTEIGER

@<TRIPOS>ATOM
      1 C         140.4577  144.2674  161.6072 C.2     1  UNL1        0.2251
      2 O         141.3415  145.2850  162.2657 O.2     1  UNL1       -0.2749
      3 N         140.2081  144.3346  160.1297 N.am    1  UNL1       -0.2794
      4 C         139.3244  143.3170  159.4713 C.3     1  UNL1        0.0954
      5 C         139.0747  143.3842  157.9937 C.3     1  UNL1        0.0441
      6 C         139.7088  144.4691  157.1746 C.3     1  UNL1        0.0856
      7 C         140.5926  145.4867  157.8330 C.3     1  UNL1        0.0441
      8 C         140.8422  145.4194  159.3105 C.3     1  UNL1        0.0954
      9 C         138.5553  141.0128  164.0647 C.3     1  UNL1        0.0542
     10 C         139.7085  140.6930  163.1604 C.3     1  UNL1        0.0162
     11 C         140.3426  141.7778  162.3412 C.3     1  UNL1        0.0104
     12 C         139.8236  143.1825  162.4264 C.3     1  UNL1        0.0768
     13 C         138.6703  143.5025  163.3307 C.3     1  UNL1        0.0095
     14 C         137.6094  144.2947  164.0356 C.3     1  UNL1        0.0005
     15 C         138.9360  144.8624  162.7564 C.3     1  UNL1        0.0005
     16 C         138.0362  142.4176  164.1499 C.3     1  UNL1        0.0162
     17 N         137.9212  139.9280  164.8838 N.3     1  UNL1       -0.2962
     18 H         137.3163  140.3881  165.5641 H       1  UNL1        0.1235
     19 C         138.7810  138.9665  165.6494 C.3     1  UNL1        0.0768
     20 C         138.7293  137.5006  165.3356 C.3     1  UNL1        0.0220
     21 C         141.5153  140.4795  168.8873 C.ar    1  UNL1        0.1387
     22 C         142.0772  140.0916  167.5517 C.ar    1  UNL1        0.0366
     23 C         141.1658  139.5872  166.4724 C.ar    1  UNL1        0.0001
     24 C         139.6924  139.4708  166.7287 C.ar    1  UNL1       -0.0078
     25 C         139.1306  139.8587  168.0642 C.ar    1  UNL1        0.0001
     26 C         140.0420  140.3631  169.1435 C.ar    1  UNL1        0.0366
     27 C         141.8638  141.7519  171.1255 C.3     1  UNL1        0.2525
     28 O         142.4268  140.9838  169.9666 O.3     1  UNL1       -0.4714
     29 N         138.9543  143.7403  156.1024 N.am    1  UNL1       -0.2455
     30 C         137.7019  144.3353  155.5301 C.3     1  UNL1        0.1008
     31 C         136.9473  143.6066  154.4579 C.3     1  UNL1        0.0691
     32 C         137.4452  142.2829  153.9580 C.3     1  UNL1        0.2119
     33 O         138.6976  141.6879  154.5302 O.3     1  UNL1       -0.4345
     34 C         139.4522  142.4167  155.6024 C.2     1  UNL1        0.4050
     35 O         140.7046  141.8217  156.1747 O.2     1  UNL1       -0.2262
     36 C         140.0809  145.3008  155.9831 C.ar    1  UNL1       -0.0059
     37 C         139.3970  146.6138  155.7419 C.ar    1  UNL1       -0.0027
     38 C         139.7691  147.4456  154.5503 C.ar    1  UNL1       -0.0003
     39 C         140.8251  146.9644  153.6000 C.ar    1  UNL1       -0.0000
     40 C         141.5090  145.6514  153.8412 C.ar    1  UNL1       -0.0003
     41 C         141.1370  144.8196  155.0327 C.ar    1  UNL1       -0.0027
@<TRIPOS>BOND
     1    27    28    1
     2    28    21    1
     3    21    22   ar
     4    22    23   ar
     5    23    24   ar
     6    24    19    1
     7    19    20    1
     8    19    17    1
     9     9    17    1
    10     9    10    1
    11    10    11    1
    12    11    12    1
    13    12     1    1
    14     1     2    2
    15     1     3   am
    16     3     4    1
    17     4     5    1
    18     5     6    1
    19     6    36    1
    20    36    37   ar
    21    37    38   ar
    22    38    39   ar
    23    39    40   ar
    24    40    41   ar
    25     6    29    1
    26    29    30    1
    27    30    31    1
    28    31    32    1
    29    32    33    1
    30    33    34    1
    31    34    35    2
    32     6     7    1
    33     7     8    1
    34    12    13    1
    35    13    14    1
    36    13    15    1
    37    13    16    1
    38    24    25   ar
    39    25    26   ar
    40    26    21   ar
    41    16     9    1
    42     8     3    1
    43    41    36   ar
    44    34    29   am
    45    17    18    1
@<TRIPOS>MOLECULE
*****
 41 45 0 0 0
SMALL
GASTEIGER

@<TRIPOS>ATOM
      1 C         143.0662  144.0421  162.4054 C.2     1  UNL1        0.2251
      2 O         144.0857  145.0557  162.8337 O.2     1  UNL1       -0.2749
      3 N         142.5116  143.0686  163.4027 N.am    1  UNL1       -0.2794
      4 C         141.4921  142.0551  162.9744 C.3     1  UNL1        0.0954
      5 C         140.9375  141.0815  163.9718 C.3     1  UNL1        0.0441
      6 C         141.4023  141.1216  165.3974 C.3     1  UNL1        0.0856
      7 C         142.4218  142.1352  165.8256 C.3     1  UNL1        0.0441
      8 C         142.9764  143.1087  164.8283 C.3     1  UNL1        0.0954
      9 C         141.6717  143.9220  158.1286 C.3     1  UNL1        0.0542
     10 C         140.9054  144.7150  159.1454 C.3     1  UNL1        0.0162
     11 C         141.3702  144.7550  160.5710 C.3     1  UNL1        0.0104
     12 C         142.6014  144.0021  160.9798 C.3     1  UNL1        0.0768
     13 C         143.3678  143.2091  159.9631 C.3     1  UNL1        0.0095
     14 C         144.4229  142.3232  159.3698 C.3     1  UNL1        0.0005
     15 C         144.1990  142.9415  161.1826 C.3     1  UNL1        0.0005
     16 C         142.9030  143.1691  158.5374 C.3     1  UNL1        0.0162
     17 N         141.2069  143.8820  156.7030 N.3     1  UNL1       -0.2962
     18 H         141.9031  144.3843  156.1521 H       1  UNL1        0.1235
     19 C         139.8694  144.4518  156.3340 C.3     1  UNL1        0.0768
     20 C         138.6267  143.6343  156.5277 C.3     1  UNL1        0.0220
     21 C         139.5846  148.6134  154.6457 C.ar    1  UNL1        0.1387
     22 C         138.9152  148.2845  155.9471 C.ar    1  UNL1        0.0366
     23 C         139.0101  146.8973  156.5099 C.ar    1  UNL1        0.0001
     24 C         139.7745  145.8390  155.7712 C.ar    1  UNL1       -0.0078
     25 C         140.4439  146.1678  154.4698 C.ar    1  UNL1        0.0001
     26 C         140.3490  147.5550  153.9071 C.ar    1  UNL1        0.0366
     27 C         139.0471  151.1360  154.9575 C.3     1  UNL1        0.2525
     28 O         139.4897  150.0005  154.0830 O.3     1  UNL1       -0.4714
     29 N         140.4266  139.9848  165.4733 N.am    1  UNL1       -0.2455
     30 C         139.0755  140.1960  166.0899 C.3     1  UNL1        0.1008
     31 C         138.0998  139.0593  166.1658 C.3     1  UNL1        0.0691
     32 C         138.4751  137.7114  165.6253 C.3     1  UNL1        0.2119
     33 O         139.8262  137.5002  165.0087 O.3     1  UNL1       -0.4345
     34 C         140.8019  138.6369  164.9328 C.2     1  UNL1        0.4050
     35 O         142.1529  138.4257  164.3162 O.2     1  UNL1       -0.2262
     36 C         141.5282  140.7668  166.8493 C.ar    1  UNL1       -0.0059
     37 C         142.4752  139.6853  167.2777 C.ar    1  UNL1       -0.0027
     38 C         142.6011  139.3305  168.7298 C.ar    1  UNL1       -0.0003
     39 C         141.7802  140.0573  169.7533 C.ar    1  UNL1       -0.0000
     40 C         140.8333  141.1388  169.3249 C.ar    1  UNL1       -0.0003
     41 C         140.7072  141.4936  167.8729 C.ar    1  UNL1       -0.0027
@<TRIPOS>BOND
     1    27    28    1
     2    28    21    1
     3    21    22   ar
     4    22    23   ar
     5    23    24   ar
     6    24    19    1
     7    19    20    1
     8    19    17    1
     9     9    17    1
    10     9    10    1
    11    10    11    1
    12    11    12    1
    13    12     1    1
    14     1     2    2
    15     1     3   am
    16     3     4    1
    17     4     5    1
    18     5     6    1
    19     6    36    1
    20    36    37   ar
    21    37    38   ar
    22    38    39   ar
    23    39    40   ar
    24    40    41   ar
    25     6    29    1
    26    29    30    1
    27    30    31    1
    28    31    32    1
    29    32    33    1
    30    33    34    1
    31    34    35    2
    32     6     7    1
    33     7     8    1
    34    12    13    1
    35    13    14    1
    36    13    15    1
    37    13    16    1
    38    24    25   ar
    39    25    26   ar
    40    26    21   ar
    41    16     9    1
    42     8     3    1
    43    41    36   ar
    44    34    29   am
    45    17    18    1
@<TRIPOS>MOLECULE
*****
 41 45 0 0 0
SMALL
GASTEIGER

@<TRIPOS>ATOM
      1 C         140.2283  144.7940  161.9437 C.2     1  UNL1        0.2251
      2 O         140.0872  146.2797  161.7925 O.2     1  UNL1       -0.2749
      3 N         140.2278  143.9132  160.7297 N.am    1  UNL1       -0.2794
      4 C         140.3689  142.4275  160.8809 C.3     1  UNL1        0.0954
      5 C         140.3684  141.5466  159.6668 C.3     1  UNL1        0.0441
      6 C         140.2267  142.1514  158.3015 C.3     1  UNL1        0.0856
      7 C         140.0856  143.6371  158.1502 C.3     1  UNL1        0.0441
      8 C         140.0861  144.5179  159.3643 C.3     1  UNL1        0.0954
      9 C         140.6533  142.9797  166.0398 C.3     1  UNL1        0.0542
     10 C         141.8554  143.1213  165.1538 C.3     1  UNL1        0.0162
     11 C         141.7137  143.7260  163.7884 C.3     1  UNL1        0.0104
     12 C         140.3700  144.1893  163.3091 C.3     1  UNL1        0.0768
     13 C         139.1679  144.0477  164.1951 C.3     1  UNL1        0.0095
     14 C         137.7450  144.1256  164.6634 C.3     1  UNL1        0.0005
     15 C         138.5321  144.6795  162.9924 C.3     1  UNL1        0.0005
     16 C         139.3095  143.4429  165.5604 C.3     1  UNL1        0.0162
     17 N         140.7950  142.3749  167.4051 N.3     1  UNL1       -0.2962
     18 H         141.7570  142.5395  167.7017 H       1  UNL1        0.1235
     19 C         140.5224  140.9143  167.6104 C.3     1  UNL1        0.0768
     20 C         140.5635  140.3306  168.9915 C.3     1  UNL1        0.0220
     21 C         139.5813  138.2836  164.0829 C.ar    1  UNL1        0.1387
     22 C         138.4710  138.9576  164.8332 C.ar    1  UNL1        0.0366
     23 C         138.7847  139.8345  166.0090 C.ar    1  UNL1        0.0001
     24 C         140.2087  140.0374  166.4346 C.ar    1  UNL1       -0.0078
     25 C         141.3190  139.3634  165.6843 C.ar    1  UNL1        0.0001
     26 C         141.0053  138.4865  164.5084 C.ar    1  UNL1        0.0366
     27 C         139.2988  137.9740  161.5189 C.3     1  UNL1        0.2525
     28 O         139.2676  137.4066  162.9070 O.3     1  UNL1       -0.4714
     29 N         140.3313  140.7008  157.9343 N.am    1  UNL1       -0.2455
     30 C         141.6237  140.1520  157.4064 C.3     1  UNL1        0.1008
     31 C         141.7282  138.7014  157.0393 C.3     1  UNL1        0.0691
     32 C         140.5405  137.7996  157.1999 C.3     1  UNL1        0.2119
     33 O         139.2480  138.3484  157.7277 O.3     1  UNL1       -0.4345
     34 C         139.1435  139.7990  158.0949 C.2     1  UNL1        0.4050
     35 O         137.8511  140.3477  158.6227 O.2     1  UNL1       -0.2262
     36 C         140.1213  142.2523  156.8086 C.ar    1  UNL1       -0.0059
     37 C         138.7925  142.0721  156.1366 C.ar    1  UNL1       -0.0027
     38 C         138.6871  142.1731  154.6437 C.ar    1  UNL1       -0.0003
     39 C         139.9105  142.4543  153.8228 C.ar    1  UNL1       -0.0000
     40 C         141.2394  142.6346  154.4948 C.ar    1  UNL1       -0.0003
     41 C         141.3449  142.5336  155.9877 C.ar    1  UNL1       -0.0027
@<TRIPOS>BOND
     1    27    28    1
     2    28    21    1
     3    21    22   ar
     4    22    23   ar
     5    23    24   ar
     6    24    19    1
     7    19    20    1
     8    19    17    1
     9     9    17    1
    10     9    10    1
    11    10    11    1
    12    11    12    1
    13    12     1    1
    14     1     2    2
    15     1     3   am
    16     3     4    1
    17     4     5    1
    18     5     6    1
    19     6    36    1
    20    36    37   ar
    21    37    38   ar
    22    38    39   ar
    23    39    40   ar
    24    40    41   ar
    25     6    29    1
    26    29    30    1
    27    30    31    1
    28    31    32    1
    29    32    33    1
    30    33    34    1
    31    34    35    2
    32     6     7    1
    33     7     8    1
    34    12    13    1
    35    13    14    1
    36    13    15    1
    37    13    16    1
    38    24    25   ar
    39    25    26   ar
    40    26    21   ar
    41    16     9    1
    42     8     3    1
    43    41    36   ar
    44    34    29   am
    45    17    18    1
@<TRIPOS>MOLECULE
*****
 41 45 0 0 0
SMALL
GASTEIGER

@<TRIPOS>ATOM
      1 C         140.5156  145.0437  162.0808 C.2     1  UNL1        0.2251
      2 O         140.1689  146.5004  161.9916 O.2     1  UNL1       -0.2749
      3 N         140.8916  144.2850  160.8427 N.am    1  UNL1       -0.2794
      4 C         141.2382  142.8284  160.9321 C.3     1  UNL1        0.0954
      5 C         141.6142  142.0696  159.6939 C.3     1  UNL1        0.0441
      6 C         141.6436  142.7675  158.3665 C.3     1  UNL1        0.0856
      7 C         141.2970  144.2242  158.2772 C.3     1  UNL1        0.0441
      8 C         140.9210  144.9829  159.5153 C.3     1  UNL1        0.0954
      9 C         140.4273  142.9499  166.0631 C.3     1  UNL1        0.0542
     10 C         141.7393  143.2337  165.3939 C.3     1  UNL1        0.0162
     11 C         141.7688  143.9317  164.0665 C.3     1  UNL1        0.0104
     12 C         140.4861  144.3458  163.4083 C.3     1  UNL1        0.0768
     13 C         139.1740  144.0619  164.0774 C.3     1  UNL1        0.0095
     14 C         137.6935  144.0148  164.3142 C.3     1  UNL1        0.0005
     15 C         138.6893  144.7435  162.8323 C.3     1  UNL1        0.0005
     16 C         139.1445  143.3640  165.4049 C.3     1  UNL1        0.0162
     17 N         140.3978  142.2520  167.3905 N.3     1  UNL1       -0.2962
     18 H         141.3451  142.2941  167.7664 H       1  UNL1        0.1235
     19 C         139.9618  140.8193  167.4750 C.3     1  UNL1        0.0768
     20 C         139.5447  140.2389  168.7938 C.3     1  UNL1        0.0220
     21 C         139.9050  138.2624  163.7725 C.ar    1  UNL1        0.1387
     22 C         138.6375  138.8934  164.2677 C.ar    1  UNL1        0.0366
     23 C         138.6565  139.7458  165.5019 C.ar    1  UNL1        0.0001
     24 C         139.9429  139.9670  166.2409 C.ar    1  UNL1       -0.0078
     25 C         141.2103  139.3359  165.7457 C.ar    1  UNL1        0.0001
     26 C         141.1914  138.4836  164.5115 C.ar    1  UNL1        0.0366
     27 C         139.5084  138.0116  161.2171 C.3     1  UNL1        0.2525
     28 O         139.8860  137.4101  162.5383 O.3     1  UNL1       -0.4714
     29 N         142.0494  141.3867  157.9439 N.am    1  UNL1       -0.2455
     30 C         141.0598  140.4905  157.2600 C.3     1  UNL1        0.1008
     31 C         141.4655  139.1096  156.8374 C.3     1  UNL1        0.0691
     32 C         142.8608  138.6250  157.0985 C.3     1  UNL1        0.2119
     33 O         143.8504  139.5212  157.7823 O.3     1  UNL1       -0.4345
     34 C         143.4447  140.9020  158.2050 C.2     1  UNL1        0.4050
     35 O         144.4343  141.7982  158.8888 O.2     1  UNL1       -0.2262
     36 C         141.8140  142.9859  156.8924 C.ar    1  UNL1       -0.0059
     37 C         140.6213  142.9364  155.9841 C.ar    1  UNL1       -0.0027
     38 C         140.7916  143.1548  154.5098 C.ar    1  UNL1       -0.0003
     39 C         142.1546  143.4226  153.9439 C.ar    1  UNL1       -0.0000
     40 C         143.3473  143.4721  154.8522 C.ar    1  UNL1       -0.0003
     41 C         143.1771  143.2537  156.3264 C.ar    1  UNL1       -0.0027
@<TRIPOS>BOND
     1    27    28    1
     2    28    21    1
     3    21    22   ar
     4    22    23   ar
     5    23    24   ar
     6    24    19    1
     7    19    20    1
     8    19    17    1
     9     9    17    1
    10     9    10    1
    11    10    11    1
    12    11    12    1
    13    12     1    1
    14     1     2    2
    15     1     3   am
    16     3     4    1
    17     4     5    1
    18     5     6    1
    19     6    36    1
    20    36    37   ar
    21    37    38   ar
    22    38    39   ar
    23    39    40   ar
    24    40    41   ar
    25     6    29    1
    26    29    30    1
    27    30    31    1
    28    31    32    1
    29    32    33    1
    30    33    34    1
    31    34    35    2
    32     6     7    1
    33     7     8    1
    34    12    13    1
    35    13    14    1
    36    13    15    1
    37    13    16    1
    38    24    25   ar
    39    25    26   ar
    40    26    21   ar
    41    16     9    1
    42     8     3    1
    43    41    36   ar
    44    34    29   am
    45    17    18    1
