@<TRIPOS>MOLECULE
*****
 30 33 0 0 0
SMALL
GASTEIGER

@<TRIPOS>ATOM
      1 N         139.1521  138.8734  165.0323 N.3     1  UNL1       -0.2727
      2 C         140.5287  138.2795  164.9861 C.3     1  UNL1        0.0724
      3 C         141.2505  138.1604  163.6767 C.3     1  UNL1        0.0220
      4 C         140.5958  138.6352  162.4134 C.3     1  UNL1        0.0329
      5 C         139.2192  139.2291  162.4596 C.3     1  UNL1        0.0220
      6 C         138.4973  139.3482  163.7691 C.3     1  UNL1        0.0724
      7 C         141.9724  138.0413  162.3672 C.3     1  UNL1        0.0898
      8 C         142.6943  137.9222  161.0577 C.2     1  UNL1        0.2307
      9 O         144.0709  137.3282  161.0115 O.2     1  UNL1       -0.2745
     10 N         142.0395  138.3970  159.7945 N.am    1  UNL1       -0.2441
     11 C         140.6629  138.9909  159.8407 C.ar    1  UNL1        0.1333
     12 N         140.0081  139.4657  158.5774 N.ar    1  UNL1       -0.2291
     13 C         138.6315  140.0597  158.6237 C.ar    1  UNL1        0.1003
     14 C         137.9096  140.1788  159.9331 C.ar    1  UNL1        0.0204
     15 C         138.5644  139.7040  161.1964 C.ar    1  UNL1        0.0001
     16 C         139.9410  139.1100  161.1502 C.ar    1  UNL1        0.0097
     17 C         142.7614  138.2779  158.4850 C.3     1  UNL1        0.0997
     18 C         142.6518  137.0169  157.6801 C.3     1  UNL1        0.0237
     19 C         138.4302  138.9925  166.3419 C.3     1  UNL1        0.0722
     20 C         140.6913  142.4252  170.7127 C.2     1  UNL1        0.4049
     21 O         140.3158  142.1643  172.1414 O.2     1  UNL1       -0.2262
     22 N         140.1260  141.5670  169.6200 N.am    1  UNL1       -0.2460
     23 C         140.5014  141.8279  168.1914 C.3     1  UNL1        0.0968
     24 C         139.9362  140.9697  167.0986 C.3     1  UNL1        0.0231
     25 C         138.9955  139.8507  167.4345 C.3     1  UNL1        0.0194
     26 C         138.6200  139.5898  168.8632 C.3     1  UNL1        0.0231
     27 C         139.1853  140.4480  169.9559 C.3     1  UNL1        0.0968
     28 O         141.6320  143.5442  170.3768 O.3     1  UNL1       -0.4345
     29 C         143.7739  142.1840  169.8181 C.3     1  UNL1        0.0513
     30 C         143.1130  143.3427  170.5040 C.3     1  UNL1        0.2102
@<TRIPOS>BOND
     1    29    30    1
     2    30    28    1
     3    28    20    1
     4    20    21    2
     5    20    22   am
     6    22    23    1
     7    23    24    1
     8    24    25    1
     9    25    19    1
    10    19     1    1
    11     1     2    1
    12     2     3    1
    13     3     4    1
    14     4     5    1
    15     5     6    1
    16     4     7    1
    17     7     8    1
    18     8     9    2
    19     8    10   am
    20    10    17    1
    21    17    18    1
    22    10    11    1
    23    11    12   ar
    24    12    13   ar
    25    13    14   ar
    26    14    15   ar
    27    15    16   ar
    28    25    26    1
    29    26    27    1
    30    27    22    1
    31     6     1    1
    32    16    11   ar
    33    16     4    1
@<TRIPOS>MOLECULE
*****
 30 33 0 0 0
SMALL
GASTEIGER

@<TRIPOS>ATOM
      1 N         139.4369  138.2996  164.1625 N.3     1  UNL1       -0.2727
      2 C         138.4783  138.0969  165.2983 C.3     1  UNL1        0.0724
      3 C         138.6902  138.8182  166.5963 C.3     1  UNL1        0.0220
      4 C         139.8606  139.7422  166.7585 C.3     1  UNL1        0.0329
      5 C         140.8192  139.9449  165.6227 C.3     1  UNL1        0.0220
      6 C         140.6073  139.2236  164.3248 C.3     1  UNL1        0.0724
      7 C         138.9020  139.5395  167.8944 C.3     1  UNL1        0.0898
      8 C         139.1139  140.2608  169.1923 C.2     1  UNL1        0.2307
      9 O         138.1553  140.0581  170.3282 O.2     1  UNL1       -0.2745
     10 N         140.2843  141.1848  169.3546 N.am    1  UNL1       -0.2441
     11 C         141.2429  141.3875  168.2188 C.ar    1  UNL1        0.1333
     12 N         142.4133  142.3115  168.3810 N.ar    1  UNL1       -0.2291
     13 C         143.3719  142.5142  167.2451 C.ar    1  UNL1        0.1003
     14 C         143.1600  141.7929  165.9472 C.ar    1  UNL1        0.0204
     15 C         141.9896  140.8689  165.7849 C.ar    1  UNL1        0.0001
     16 C         141.0310  140.6662  166.9207 C.ar    1  UNL1        0.0097
     17 C         140.4962  141.9061  170.6526 C.3     1  UNL1        0.0997
     18 C         139.7587  143.1824  170.9305 C.3     1  UNL1        0.0237
     19 C         139.2250  137.5783  162.8645 C.3     1  UNL1        0.0722
     20 C         138.4759  140.6911  157.7902 C.2     1  UNL1        0.4049
     21 O         139.5569  140.7018  156.7502 O.2     1  UNL1       -0.2262
     22 N         138.6632  139.9129  159.0587 N.am    1  UNL1       -0.2460
     23 C         137.5822  139.9023  160.0986 C.3     1  UNL1        0.0968
     24 C         137.7694  139.1241  161.3672 C.3     1  UNL1        0.0231
     25 C         139.0377  138.3565  161.5959 C.3     1  UNL1        0.0194
     26 C         140.1187  138.3672  160.5560 C.3     1  UNL1        0.0231
     27 C         139.9314  139.1454  159.2874 C.3     1  UNL1        0.0968
     28 O         137.2076  141.4587  157.5615 O.3     1  UNL1       -0.4345
     29 C         136.0581  141.9447  155.2827 C.3     1  UNL1        0.0513
     30 C         136.2691  141.0472  156.4660 C.3     1  UNL1        0.2102
@<TRIPOS>BOND
     1    29    30    1
     2    30    28    1
     3    28    20    1
     4    20    21    2
     5    20    22   am
     6    22    23    1
     7    23    24    1
     8    24    25    1
     9    25    19    1
    10    19     1    1
    11     1     2    1
    12     2     3    1
    13     3     4    1
    14     4     5    1
    15     5     6    1
    16     4     7    1
    17     7     8    1
    18     8     9    2
    19     8    10   am
    20    10    17    1
    21    17    18    1
    22    10    11    1
    23    11    12   ar
    24    12    13   ar
    25    13    14   ar
    26    14    15   ar
    27    15    16   ar
    28    25    26    1
    29    26    27    1
    30    27    22    1
    31     6     1    1
    32    16    11   ar
    33    16     4    1
@<TRIPOS>MOLECULE
*****
 30 33 0 0 0
SMALL
GASTEIGER

@<TRIPOS>ATOM
      1 N         140.9560  139.8845  163.1893 N.3     1  UNL1       -0.2727
      2 C         141.2484  139.4859  161.7732 C.3     1  UNL1        0.0724
      3 C         141.1604  140.5031  160.6743 C.3     1  UNL1        0.0220
      4 C         140.7801  141.9190  160.9917 C.3     1  UNL1        0.0329
      5 C         140.4877  142.3176  162.4078 C.3     1  UNL1        0.0220
      6 C         140.5757  141.3004  163.5067 C.3     1  UNL1        0.0724
      7 C         141.0724  141.5204  159.5754 C.3     1  UNL1        0.0898
      8 C         140.9845  142.5376  158.4766 C.2     1  UNL1        0.2307
      9 O         141.2769  142.1390  157.0603 O.2     1  UNL1       -0.2745
     10 N         140.6042  143.9534  158.7939 N.am    1  UNL1       -0.2441
     11 C         140.3118  144.3521  160.2101 C.ar    1  UNL1        0.1333
     12 N         139.9315  145.7679  160.5274 N.ar    1  UNL1       -0.2291
     13 C         139.6391  146.1665  161.9437 C.ar    1  UNL1        0.1003
     14 C         139.7271  145.1493  163.0425 C.ar    1  UNL1        0.0204
     15 C         140.1074  143.7335  162.7252 C.ar    1  UNL1        0.0001
     16 C         140.3997  143.3348  161.3090 C.ar    1  UNL1        0.0097
     17 C         140.5162  144.9707  157.6950 C.3     1  UNL1        0.0997
     18 C         141.7215  145.7848  157.3284 C.3     1  UNL1        0.0237
     19 C         141.0439  138.8673  164.2882 C.3     1  UNL1        0.0722
     20 C         139.5407  140.3737  169.8981 C.2     1  UNL1        0.4049
     21 O         138.1085  140.2964  170.3373 O.2     1  UNL1       -0.2262
     22 N         139.9165  139.9971  168.4957 N.am    1  UNL1       -0.2460
     23 C         141.3487  140.0744  168.0565 C.3     1  UNL1        0.0968
     24 C         141.7245  139.6978  166.6540 C.3     1  UNL1        0.0231
     25 C         140.6682  139.2439  165.6907 C.3     1  UNL1        0.0194
     26 C         139.2359  139.1665  166.1299 C.3     1  UNL1        0.0231
     27 C         138.8601  139.5431  167.5323 C.3     1  UNL1        0.0968
     28 O         140.5971  140.8276  170.8614 O.3     1  UNL1       -0.4345
     29 C         140.3533  143.2702  170.0104 C.3     1  UNL1        0.0513
     30 C         140.9089  142.2884  170.9990 C.3     1  UNL1        0.2102
@<TRIPOS>BOND
     1    29    30    1
     2    30    28    1
     3    28    20    1
     4    20    21    2
     5    20    22   am
     6    22    23    1
     7    23    24    1
     8    24    25    1
     9    25    19    1
    10    19     1    1
    11     1     2    1
    12     2     3    1
    13     3     4    1
    14     4     5    1
    15     5     6    1
    16     4     7    1
    17     7     8    1
    18     8     9    2
    19     8    10   am
    20    10    17    1
    21    17    18    1
    22    10    11    1
    23    11    12   ar
    24    12    13   ar
    25    13    14   ar
    26    14    15   ar
    27    15    16   ar
    28    25    26    1
    29    26    27    1
    30    27    22    1
    31     6     1    1
    32    16    11   ar
    33    16     4    1
@<TRIPOS>MOLECULE
*****
 30 33 0 0 0
SMALL
GASTEIGER

@<TRIPOS>ATOM
      1 N         138.6674  139.1674  163.3305 N.3     1  UNL1       -0.2727
      2 C         138.0477  138.5630  162.1056 C.3     1  UNL1        0.0724
      3 C         137.9939  139.3467  160.8278 C.3     1  UNL1        0.0220
      4 C         138.5599  140.7348  160.7749 C.3     1  UNL1        0.0329
      5 C         139.1796  141.3392  161.9998 C.3     1  UNL1        0.0220
      6 C         139.2334  140.5555  163.2776 C.3     1  UNL1        0.0724
      7 C         137.9401  140.1304  159.5498 C.3     1  UNL1        0.0898
      8 C         137.8863  140.9141  158.2720 C.2     1  UNL1        0.2307
      9 O         137.2666  140.3096  157.0470 O.2     1  UNL1       -0.2745
     10 N         138.4523  142.3022  158.2191 N.am    1  UNL1       -0.2441
     11 C         139.0720  142.9066  159.4441 C.ar    1  UNL1        0.1333
     12 N         139.6379  144.2948  159.3912 N.ar    1  UNL1       -0.2291
     13 C         140.2577  144.8992  160.6162 C.ar    1  UNL1        0.1003
     14 C         140.3115  144.1155  161.8941 C.ar    1  UNL1        0.0204
     15 C         139.7455  142.7274  161.9469 C.ar    1  UNL1        0.0001
     16 C         139.1258  142.1229  160.7220 C.ar    1  UNL1        0.0097
     17 C         138.3985  143.0859  156.9412 C.3     1  UNL1        0.0997
     18 C         139.5756  143.0864  156.0116 C.3     1  UNL1        0.0237
     19 C         138.7212  138.3837  164.6084 C.3     1  UNL1        0.0722
     20 C         141.7003  140.5609  169.3397 C.2     1  UNL1        0.4049
     21 O         143.1994  140.6106  169.3241 O.2     1  UNL1       -0.2262
     22 N         140.9555  140.0166  168.1569 N.am    1  UNL1       -0.2460
     23 C         139.4565  139.9670  168.1725 C.3     1  UNL1        0.0968
     24 C         138.7116  139.4227  166.9897 C.3     1  UNL1        0.0231
     25 C         139.4660  138.9280  165.7912 C.3     1  UNL1        0.0194
     26 C         140.9651  138.9776  165.7756 C.3     1  UNL1        0.0231
     27 C         141.7099  139.5219  166.9584 C.3     1  UNL1        0.0968
     28 O         140.9459  141.0556  170.5381 O.3     1  UNL1       -0.4345
     29 C         140.4495  143.3648  169.4558 C.3     1  UNL1        0.0513
     30 C         140.6361  142.5166  170.6788 C.3     1  UNL1        0.2102
@<TRIPOS>BOND
     1    29    30    1
     2    30    28    1
     3    28    20    1
     4    20    21    2
     5    20    22   am
     6    22    23    1
     7    23    24    1
     8    24    25    1
     9    25    19    1
    10    19     1    1
    11     1     2    1
    12     2     3    1
    13     3     4    1
    14     4     5    1
    15     5     6    1
    16     4     7    1
    17     7     8    1
    18     8     9    2
    19     8    10   am
    20    10    17    1
    21    17    18    1
    22    10    11    1
    23    11    12   ar
    24    12    13   ar
    25    13    14   ar
    26    14    15   ar
    27    15    16   ar
    28    25    26    1
    29    26    27    1
    30    27    22    1
    31     6     1    1
    32    16    11   ar
    33    16     4    1
@<TRIPOS>MOLECULE
*****
 30 33 0 0 0
SMALL
GASTEIGER

@<TRIPOS>ATOM
      1 N         140.9119  140.2118  163.2375 N.3     1  UNL1       -0.2727
      2 C         140.0518  141.4332  163.3723 C.3     1  UNL1        0.0724
      3 C         140.1826  142.5552  162.3853 C.3     1  UNL1        0.0220
      4 C         141.1735  142.4556  161.2636 C.3     1  UNL1        0.0329
      5 C         142.0336  141.2342  161.1289 C.3     1  UNL1        0.0220
      6 C         141.9028  140.1123  162.1158 C.3     1  UNL1        0.0724
      7 C         140.3133  143.6772  161.3984 C.3     1  UNL1        0.0898
      8 C         140.4441  144.7991  160.4114 C.2     1  UNL1        0.2307
      9 O         139.5840  146.0207  160.5461 O.2     1  UNL1       -0.2745
     10 N         141.4350  144.6996  159.2897 N.am    1  UNL1       -0.2441
     11 C         142.2951  143.4781  159.1550 C.ar    1  UNL1        0.1333
     12 N         143.2860  143.3786  158.0333 N.ar    1  UNL1       -0.2291
     13 C         144.1462  142.1571  157.8985 C.ar    1  UNL1        0.1003
     14 C         144.0154  141.0351  158.8855 C.ar    1  UNL1        0.0204
     15 C         143.0245  141.1347  160.0072 C.ar    1  UNL1        0.0001
     16 C         142.1644  142.3561  160.1419 C.ar    1  UNL1        0.0097
     17 C         141.5658  145.8216  158.3027 C.3     1  UNL1        0.0997
     18 C         140.6349  145.9005  157.1292 C.3     1  UNL1        0.0237
     19 C         140.7811  139.0898  164.2245 C.3     1  UNL1        0.0722
     20 C         139.3024  140.2614  169.9201 C.2     1  UNL1        0.4049
     21 O         137.9063  139.9984  170.4019 O.2     1  UNL1       -0.2262
     22 N         139.6720  139.9685  168.4962 N.am    1  UNL1       -0.2460
     23 C         141.0680  140.2315  168.0145 C.3     1  UNL1        0.0968
     24 C         141.4377  139.9386  166.5906 C.3     1  UNL1        0.0231
     25 C         140.4114  139.3827  165.6484 C.3     1  UNL1        0.0194
     26 C         139.0154  139.1197  166.1302 C.3     1  UNL1        0.0231
     27 C         138.6457  139.4126  167.5541 C.3     1  UNL1        0.0968
     28 O         140.3286  140.8173  170.8623 O.3     1  UNL1       -0.4345
     29 C         140.2256  143.2327  169.9108 C.3     1  UNL1        0.0513
     30 C         140.4344  142.2997  171.0665 C.3     1  UNL1        0.2102
@<TRIPOS>BOND
     1    29    30    1
     2    30    28    1
     3    28    20    1
     4    20    21    2
     5    20    22   am
     6    22    23    1
     7    23    24    1
     8    24    25    1
     9    25    19    1
    10    19     1    1
    11     1     2    1
    12     2     3    1
    13     3     4    1
    14     4     5    1
    15     5     6    1
    16     4     7    1
    17     7     8    1
    18     8     9    2
    19     8    10   am
    20    10    17    1
    21    17    18    1
    22    10    11    1
    23    11    12   ar
    24    12    13   ar
    25    13    14   ar
    26    14    15   ar
    27    15    16   ar
    28    25    26    1
    29    26    27    1
    30    27    22    1
    31     6     1    1
    32    16    11   ar
    33    16     4    1
@<TRIPOS>MOLECULE
*****
 30 33 0 0 0
SMALL
GASTEIGER

@<TRIPOS>ATOM
      1 N         143.2373  138.4655  162.9329 N.3     1  UNL1       -0.2727
      2 C         144.0871  139.4274  163.7090 C.3     1  UNL1        0.0724
      3 C         143.5561  140.0529  164.9646 C.3     1  UNL1        0.0220
      4 C         142.1752  139.7164  165.4442 C.3     1  UNL1        0.0329
      5 C         141.3254  138.7545  164.6681 C.3     1  UNL1        0.0220
      6 C         141.8564  138.1290  163.4124 C.3     1  UNL1        0.0724
      7 C         143.0251  140.6784  166.2204 C.3     1  UNL1        0.0898
      8 C         142.4941  141.3038  167.4761 C.2     1  UNL1        0.2307
      9 O         143.3439  142.2658  168.2523 O.2     1  UNL1       -0.2745
     10 N         141.1132  140.9674  167.9556 N.am    1  UNL1       -0.2441
     11 C         140.2633  140.0054  167.1795 C.ar    1  UNL1        0.1333
     12 N         138.8825  139.6690  167.6590 N.ar    1  UNL1       -0.2291
     13 C         138.0326  138.7070  166.8828 C.ar    1  UNL1        0.1003
     14 C         138.5636  138.0815  165.6272 C.ar    1  UNL1        0.0204
     15 C         139.9445  138.4180  165.1476 C.ar    1  UNL1        0.0001
     16 C         140.7944  139.3799  165.9237 C.ar    1  UNL1        0.0097
     17 C         140.5822  141.5929  169.2114 C.3     1  UNL1        0.0997
     18 C         140.3071  143.0667  169.2568 C.3     1  UNL1        0.0237
     19 C         143.7683  137.8400  161.6771 C.3     1  UNL1        0.0722
     20 C         142.7660  140.4511  156.3689 C.2     1  UNL1        0.4049
     21 O         142.0326  139.7061  155.2931 O.2     1  UNL1       -0.2262
     22 N         143.0166  139.7983  157.6959 N.am    1  UNL1       -0.2460
     23 C         143.7499  140.5433  158.7716 C.3     1  UNL1        0.0968
     24 C         144.0005  139.8905  160.0987 C.3     1  UNL1        0.0231
     25 C         143.5177  138.4927  160.3501 C.3     1  UNL1        0.0194
     26 C         142.7844  137.7477  159.2743 C.3     1  UNL1        0.0231
     27 C         142.5338  138.4005  157.9473 C.3     1  UNL1        0.0968
     28 O         143.2488  141.8488  156.1176 O.3     1  UNL1       -0.4345
     29 C         145.6290  141.0110  155.4987 C.3     1  UNL1        0.0513
     30 C         144.5740  142.0764  155.4527 C.3     1  UNL1        0.2102
@<TRIPOS>BOND
     1    29    30    1
     2    30    28    1
     3    28    20    1
     4    20    21    2
     5    20    22   am
     6    22    23    1
     7    23    24    1
     8    24    25    1
     9    25    19    1
    10    19     1    1
    11     1     2    1
    12     2     3    1
    13     3     4    1
    14     4     5    1
    15     5     6    1
    16     4     7    1
    17     7     8    1
    18     8     9    2
    19     8    10   am
    20    10    17    1
    21    17    18    1
    22    10    11    1
    23    11    12   ar
    24    12    13   ar
    25    13    14   ar
    26    14    15   ar
    27    15    16   ar
    28    25    26    1
    29    26    27    1
    30    27    22    1
    31     6     1    1
    32    16    11   ar
    33    16     4    1
@<TRIPOS>MOLECULE
*****
 30 33 0 0 0
SMALL
GASTEIGER

@<TRIPOS>ATOM
      1 N         139.3172  142.4479  163.4800 N.3     1  UNL1       -0.2727
      2 C         139.1918  143.3584  164.6655 C.3     1  UNL1        0.0724
      3 C         139.9394  143.0516  165.9291 C.3     1  UNL1        0.0220
      4 C         140.8124  141.8343  166.0073 C.3     1  UNL1        0.0329
      5 C         140.9378  140.9238  164.8219 C.3     1  UNL1        0.0220
      6 C         140.1902  141.2307  163.5582 C.3     1  UNL1        0.0724
      7 C         140.6870  142.7448  167.1929 C.3     1  UNL1        0.0898
      8 C         141.4347  142.4379  168.4565 C.2     1  UNL1        0.2307
      9 O         141.3093  143.3484  169.6421 O.2     1  UNL1       -0.2745
     10 N         142.3077  141.2207  168.5347 N.am    1  UNL1       -0.2441
     11 C         142.4331  140.3102  167.3493 C.ar    1  UNL1        0.1333
     12 N         143.3061  139.0930  167.4275 N.ar    1  UNL1       -0.2291
     13 C         143.4314  138.1825  166.2420 C.ar    1  UNL1        0.1003
     14 C         142.6838  138.4893  164.9783 C.ar    1  UNL1        0.0204
     15 C         141.8108  139.7066  164.9001 C.ar    1  UNL1        0.0001
     16 C         141.6854  140.6170  166.0855 C.ar    1  UNL1        0.0097
     17 C         143.0553  140.9139  169.7985 C.3     1  UNL1        0.0997
     18 C         142.4395  140.0239  170.8370 C.3     1  UNL1        0.0237
     19 C         138.5695  142.7547  162.2163 C.3     1  UNL1        0.0722
     20 C         141.4421  145.1958  157.5485 C.2     1  UNL1        0.4049
     21 O         142.4613  146.2729  157.7749 O.2     1  UNL1       -0.2262
     22 N         140.7240  144.5855  158.7154 N.am    1  UNL1       -0.2460
     23 C         139.7049  143.5085  158.4890 C.3     1  UNL1        0.0968
     24 C         138.9867  142.8981  159.6560 C.3     1  UNL1        0.0231
     25 C         139.2876  143.3650  161.0493 C.3     1  UNL1        0.0194
     26 C         140.3068  144.4421  161.2757 C.3     1  UNL1        0.0231
     27 C         141.0249  145.0524  160.1088 C.3     1  UNL1        0.0968
     28 O         141.1412  144.7290  156.1551 O.3     1  UNL1       -0.4345
     29 C         140.3431  146.8231  154.8406 C.3     1  UNL1        0.0513
     30 C         141.2925  145.6726  154.9989 C.3     1  UNL1        0.2102
@<TRIPOS>BOND
     1    29    30    1
     2    30    28    1
     3    28    20    1
     4    20    21    2
     5    20    22   am
     6    22    23    1
     7    23    24    1
     8    24    25    1
     9    25    19    1
    10    19     1    1
    11     1     2    1
    12     2     3    1
    13     3     4    1
    14     4     5    1
    15     5     6    1
    16     4     7    1
    17     7     8    1
    18     8     9    2
    19     8    10   am
    20    10    17    1
    21    17    18    1
    22    10    11    1
    23    11    12   ar
    24    12    13   ar
    25    13    14   ar
    26    14    15   ar
    27    15    16   ar
    28    25    26    1
    29    26    27    1
    30    27    22    1
    31     6     1    1
    32    16    11   ar
    33    16     4    1
@<TRIPOS>MOLECULE
*****
 30 33 0 0 0
SMALL
GASTEIGER

@<TRIPOS>ATOM
      1 N         139.7624  140.6867  161.6361 N.3     1  UNL1       -0.2727
      2 C         138.7122  139.8925  162.3547 C.3     1  UNL1        0.0724
      3 C         138.7703  139.7492  163.8466 C.3     1  UNL1        0.0220
      4 C         139.8785  140.4002  164.6201 C.3     1  UNL1        0.0329
      5 C         140.9286  141.1944  163.9015 C.3     1  UNL1        0.0220
      6 C         140.8706  141.3376  162.4095 C.3     1  UNL1        0.0724
      7 C         138.8283  139.6059  165.3387 C.3     1  UNL1        0.0898
      8 C         138.8863  139.4627  166.8307 C.2     1  UNL1        0.2307
      9 O         137.8361  138.6685  167.5493 O.2     1  UNL1       -0.2745
     10 N         139.9945  140.1136  167.6041 N.am    1  UNL1       -0.2441
     11 C         141.0447  140.9078  166.8855 C.ar    1  UNL1        0.1333
     12 N         142.1528  141.5588  167.6590 N.ar    1  UNL1       -0.2291
     13 C         143.2030  142.3530  166.9403 C.ar    1  UNL1        0.1003
     14 C         143.1450  142.4963  165.4483 C.ar    1  UNL1        0.0204
     15 C         142.0368  141.8453  164.6749 C.ar    1  UNL1        0.0001
     16 C         140.9867  141.0511  165.3935 C.ar    1  UNL1        0.0097
     17 C         140.0525  139.9703  169.0962 C.3     1  UNL1        0.0997
     18 C         139.2981  140.9268  169.9714 C.3     1  UNL1        0.0237
     19 C         139.7044  140.8300  160.1440 C.3     1  UNL1        0.0722
     20 C         141.9312  136.5094  156.6264 C.2     1  UNL1        0.4049
     21 O         141.0558  135.8510  155.6016 O.2     1  UNL1       -0.2262
     22 N         141.3745  137.5896  157.5058 N.am    1  UNL1       -0.2460
     23 C         142.2499  138.2479  158.5306 C.3     1  UNL1        0.0968
     24 C         141.6932  139.3281  159.4100 C.3     1  UNL1        0.0231
     25 C         140.2611  139.7499  159.2646 C.3     1  UNL1        0.0194
     26 C         139.3857  139.0915  158.2398 C.3     1  UNL1        0.0231
     27 C         139.9424  138.0113  157.3604 C.3     1  UNL1        0.0968
     28 O         143.3633  136.0876  156.7718 O.3     1  UNL1       -0.4345
     29 C         143.1018  133.5261  157.1187 C.3     1  UNL1        0.0513
     30 C         143.7693  134.6831  156.4362 C.3     1  UNL1        0.2102
@<TRIPOS>BOND
     1    29    30    1
     2    30    28    1
     3    28    20    1
     4    20    21    2
     5    20    22   am
     6    22    23    1
     7    23    24    1
     8    24    25    1
     9    25    19    1
    10    19     1    1
    11     1     2    1
    12     2     3    1
    13     3     4    1
    14     4     5    1
    15     5     6    1
    16     4     7    1
    17     7     8    1
    18     8     9    2
    19     8    10   am
    20    10    17    1
    21    17    18    1
    22    10    11    1
    23    11    12   ar
    24    12    13   ar
    25    13    14   ar
    26    14    15   ar
    27    15    16   ar
    28    25    26    1
    29    26    27    1
    30    27    22    1
    31     6     1    1
    32    16    11   ar
    33    16     4    1
@<TRIPOS>MOLECULE
*****
 30 33 0 0 0
SMALL
GASTEIGER

@<TRIPOS>ATOM
      1 N         143.3855  138.7120  163.2112 N.3     1  UNL1       -0.2727
      2 C         144.0854  139.7261  164.0666 C.3     1  UNL1        0.0724
      3 C         143.4108  140.2674  165.2920 C.3     1  UNL1        0.0220
      4 C         142.0362  139.7946  165.6621 C.3     1  UNL1        0.0329
      5 C         141.3363  138.7805  164.8068 C.3     1  UNL1        0.0220
      6 C         142.0109  138.2392  163.5813 C.3     1  UNL1        0.0724
      7 C         142.7361  140.8088  166.5175 C.3     1  UNL1        0.0898
      8 C         142.0614  141.3501  167.7430 C.2     1  UNL1        0.2307
      9 O         142.7613  142.3643  168.5984 O.2     1  UNL1       -0.2745
     10 N         140.6868  140.8773  168.1131 N.am    1  UNL1       -0.2441
     11 C         139.9869  139.8632  167.2577 C.ar    1  UNL1        0.1333
     12 N         138.6123  139.3904  167.6278 N.ar    1  UNL1       -0.2291
     13 C         137.9124  138.3762  166.7724 C.ar    1  UNL1        0.1003
     14 C         138.5871  137.8349  165.5470 C.ar    1  UNL1        0.0204
     15 C         139.9617  138.3077  165.1769 C.ar    1  UNL1        0.0001
     16 C         140.6616  139.3218  166.0322 C.ar    1  UNL1        0.0097
     17 C         140.0122  141.4187  169.3386 C.3     1  UNL1        0.0997
     18 C         140.4133  140.9232  170.6963 C.3     1  UNL1        0.0237
     19 C         144.0602  138.1706  161.9857 C.3     1  UNL1        0.0722
     20 C         142.1249  139.7773  156.5385 C.2     1  UNL1        0.4049
     21 O         142.2787  141.1960  156.0761 O.2     1  UNL1       -0.2262
     22 N         142.6087  139.3756  157.9003 N.am    1  UNL1       -0.2460
     23 C         142.4548  137.9570  158.3625 C.3     1  UNL1        0.0968
     24 C         142.9387  137.5553  159.7244 C.3     1  UNL1        0.0231
     25 C         143.5764  138.5723  160.6239 C.3     1  UNL1        0.0194
     26 C         143.7302  139.9910  160.1616 C.3     1  UNL1        0.0231
     27 C         143.2464  140.3926  158.7998 C.3     1  UNL1        0.0968
     28 O         141.4872  138.7603  155.6390 O.3     1  UNL1       -0.4345
     29 C         142.4364  136.5537  154.6490 C.3     1  UNL1        0.0513
     30 C         142.3124  138.0480  154.6085 C.3     1  UNL1        0.2102
@<TRIPOS>BOND
     1    29    30    1
     2    30    28    1
     3    28    20    1
     4    20    21    2
     5    20    22   am
     6    22    23    1
     7    23    24    1
     8    24    25    1
     9    25    19    1
    10    19     1    1
    11     1     2    1
    12     2     3    1
    13     3     4    1
    14     4     5    1
    15     5     6    1
    16     4     7    1
    17     7     8    1
    18     8     9    2
    19     8    10   am
    20    10    17    1
    21    17    18    1
    22    10    11    1
    23    11    12   ar
    24    12    13   ar
    25    13    14   ar
    26    14    15   ar
    27    15    16   ar
    28    25    26    1
    29    26    27    1
    30    27    22    1
    31     6     1    1
    32    16    11   ar
    33    16     4    1
