@<TRIPOS>MOLECULE
*****
 47 52 0 0 0
SMALL
GASTEIGER

@<TRIPOS>ATOM
      1 C         143.3490  139.1178  158.5283 C.ar    1  UNL1        0.1745
      2 C         143.4200  140.6157  158.5643 C.ar    1  UNL1        0.0412
      3 C         143.1987  141.3462  159.8555 C.ar    1  UNL1        0.0180
      4 C         142.9064  140.5788  161.1108 C.ar    1  UNL1        0.0528
      5 C         142.8354  139.0810  161.0748 C.ar    1  UNL1        0.0475
      6 C         143.0567  138.3504  159.7835 C.ar    1  UNL1        0.1757
      7 F         142.9857  136.8526  159.7476 F       1  UNL1       -0.2009
      8 N         142.6852  141.3094  162.4021 N.am    1  UNL1       -0.2835
      9 C         143.7877  141.3917  163.4157 C.2     1  UNL1        0.2335
     10 O         145.1116  140.7434  163.1382 O.2     1  UNL1       -0.2743
     11 H         141.8162  141.7349  162.5843 H       1  UNL1        0.1549
     12 C         143.5664  142.1222  164.7070 C.3     1  UNL1        0.1377
     13 C         143.8124  143.0415  165.8664 C.3     1  UNL1        0.0183
     14 C         144.8352  142.9193  164.7760 C.3     1  UNL1        0.0183
     15 C         142.2208  141.5789  165.0863 C.2     1  UNL1        0.2335
     16 O         140.9786  142.3490  164.7488 O.2     1  UNL1       -0.2743
     17 N         142.1173  140.2653  165.8033 N.am    1  UNL1       -0.2835
     18 H         142.9325  139.7599  166.0249 H       1  UNL1        0.1549
     19 C         140.7716  139.7221  166.1827 C.ar    1  UNL1        0.0505
     20 C         140.1557  140.0956  167.4985 C.ar    1  UNL1        0.0170
     21 C         138.8100  139.5524  167.8780 C.ar    1  UNL1        0.0309
     22 C         138.0802  138.6356  166.9416 C.ar    1  UNL1        0.1402
     23 F         136.7345  138.0923  167.3211 F       1  UNL1       -0.2042
     24 C         138.6959  138.2620  165.6259 C.ar    1  UNL1        0.0309
     25 C         140.0417  138.8052  165.2464 C.ar    1  UNL1        0.0170
     26 O         143.5703  138.3873  157.2370 O.3     1  UNL1       -0.4326
     27 C         142.9794  130.4467  155.9725 C.ar    1  UNL1        0.1722
     28 C         143.6243  131.6970  156.4930 C.ar    1  UNL1        0.0387
     29 C         142.9708  133.0281  156.2666 C.ar    1  UNL1        0.0140
     30 C         141.6725  133.1088  155.5196 C.ar    1  UNL1        0.0502
     31 C         141.0277  131.8585  154.9991 C.ar    1  UNL1        0.0544
     32 C         141.6812  130.5274  155.2255 C.ar    1  UNL1        0.1736
     33 N         140.8592  134.3244  155.1867 N.pl3   1  UNL1       -0.2969
     34 C         141.1431  135.7594  155.5185 C.ar    1  UNL1        0.1518
     35 N         140.0676  136.6656  154.9970 N.ar    1  UNL1       -0.2074
     36 C         140.1597  138.1458  155.2222 C.ar    1  UNL1        0.2028
     37 N         141.3272  138.7196  155.9688 N.ar    1  UNL1       -0.1879
     38 C         142.4027  137.8134  156.4903 C.ar    1  UNL1        0.2473
     39 C         142.3107  136.3333  156.2652 C.ar    1  UNL1        0.1313
     40 N         143.4826  135.6138  156.8645 N.pl3   1  UNL1       -0.3232
     41 C         143.7764  134.1429  156.8651 C.3     1  UNL1        0.1158
     42 H         140.0292  134.1584  154.6840 H       1  UNL1        0.1536
     43 H         144.1467  136.1823  157.3172 H       1  UNL1        0.1473
     44 C         143.2076  128.2581  157.3538 C.3     1  UNL1        0.2526
     45 O         143.6329  129.1156  156.1989 O.3     1  UNL1       -0.4684
     46 O         141.0363  129.2772  154.7050 O.3     1  UNL1       -0.4683
     47 C         139.7027  128.8436  155.2371 C.3     1  UNL1        0.2526
@<TRIPOS>BOND
     1    44    45    1
     2    45    27    1
     3    27    28   ar
     4    28    29   ar
     5    29    30   ar
     6    30    31   ar
     7    31    32   ar
     8    32    46    1
     9    46    47    1
    10    30    33    1
    11    33    34    1
    12    34    35   ar
    13    35    36   ar
    14    36    37   ar
    15    37    38   ar
    16    38    26    1
    17    26     1    1
    18     1     2   ar
    19     2     3   ar
    20     3     4   ar
    21     4     8    1
    22     8     9   am
    23     9    10    2
    24     9    12    1
    25    12    15    1
    26    15    16    2
    27    15    17   am
    28    17    19    1
    29    19    20   ar
    30    20    21   ar
    31    21    22   ar
    32    22    23    1
    33    22    24   ar
    34    24    25   ar
    35    12    13    1
    36    13    14    1
    37     4     5   ar
    38     5     6   ar
    39     6     7    1
    40    38    39   ar
    41    39    40    1
    42    40    41    1
    43    32    27   ar
    44    39    34   ar
    45    41    29    1
    46     6     1   ar
    47    14    12    1
    48    25    19   ar
    49    33    42    1
    50     8    11    1
    51    17    18    1
    52    40    43    1
@<TRIPOS>MOLECULE
*****
 47 52 0 0 0
SMALL
GASTEIGER

@<TRIPOS>ATOM
      1 C         143.8112  139.8077  160.2120 C.ar    1  UNL1        0.1745
      2 C         143.6797  140.3856  158.8340 C.ar    1  UNL1        0.0412
      3 C         143.1358  139.5452  157.7170 C.ar    1  UNL1        0.0180
      4 C         142.7234  138.1268  157.9779 C.ar    1  UNL1        0.0528
      5 C         142.8548  137.5488  159.3557 C.ar    1  UNL1        0.0475
      6 C         143.3988  138.3893  160.4728 C.ar    1  UNL1        0.1757
      7 F         143.5303  137.8113  161.8507 F       1  UNL1       -0.2009
      8 N         142.1794  137.2864  156.8607 N.am    1  UNL1       -0.2835
      9 C         143.1096  136.7074  155.8363 C.2     1  UNL1        0.2335
     10 O         144.5837  136.9689  155.9289 O.2     1  UNL1       -0.2743
     11 H         141.2119  137.1147  156.8000 H       1  UNL1        0.1549
     12 C         142.5656  135.8670  154.7193 C.3     1  UNL1        0.1377
     13 C         141.9526  135.5017  153.3999 C.3     1  UNL1        0.0183
     14 C         142.1778  136.9431  153.7488 C.3     1  UNL1        0.0183
     15 C         142.7645  134.4992  155.3017 C.2     1  UNL1        0.2335
     16 O         141.5765  133.6519  155.6490 O.2     1  UNL1       -0.2743
     17 N         144.1515  133.9785  155.5369 N.am    1  UNL1       -0.2835
     18 H         144.9313  134.5346  155.3089 H       1  UNL1        0.1549
     19 C         144.3503  132.6106  156.1194 C.ar    1  UNL1        0.0505
     20 C         144.1888  131.3962  155.2538 C.ar    1  UNL1        0.0170
     21 C         144.3876  130.0282  155.8362 C.ar    1  UNL1        0.0309
     22 C         144.7479  129.8747  157.2841 C.ar    1  UNL1        0.1402
     23 F         144.9467  128.5067  157.8665 F       1  UNL1       -0.2042
     24 C         144.9094  131.0890  158.1497 C.ar    1  UNL1        0.0309
     25 C         144.7106  132.4570  157.5673 C.ar    1  UNL1        0.0170
     26 O         144.3551  140.6481  161.3290 O.3     1  UNL1       -0.4326
     27 C         141.9458  139.8266  168.9789 C.ar    1  UNL1        0.1722
     28 C         142.6651  139.4173  167.7278 C.ar    1  UNL1        0.0387
     29 C         142.6055  140.2896  166.5090 C.ar    1  UNL1        0.0140
     30 C         141.8266  141.5712  166.5413 C.ar    1  UNL1        0.0502
     31 C         141.1075  141.9804  167.7924 C.ar    1  UNL1        0.0544
     32 C         141.1671  141.1081  169.0112 C.ar    1  UNL1        0.1736
     33 N         141.6388  142.5792  165.4465 N.pl3   1  UNL1       -0.2969
     34 C         142.1834  142.5547  164.0490 C.ar    1  UNL1        0.1518
     35 N         141.7544  143.7641  163.2724 N.ar    1  UNL1       -0.2074
     36 C         142.1923  143.9349  161.8480 C.ar    1  UNL1        0.2028
     37 N         143.0592  142.8962  161.2002 N.ar    1  UNL1       -0.1879
     38 C         143.4882  141.6868  161.9768 C.ar    1  UNL1        0.2473
     39 C         143.0503  141.5160  163.4012 C.ar    1  UNL1        0.1313
     40 N         143.5867  140.2454  163.9909 N.pl3   1  UNL1       -0.3232
     41 C         143.3888  139.6995  165.3740 C.3     1  UNL1        0.1158
     42 H         141.0849  143.3602  165.6754 H       1  UNL1        0.1536
     43 H         144.1422  139.6971  163.3908 H       1  UNL1        0.1473
     44 C         143.0836  137.9195  170.3274 C.3     1  UNL1        0.2526
     45 O         142.0055  138.9543  170.1978 O.3     1  UNL1       -0.4684
     46 O         140.4478  141.5175  170.2623 O.3     1  UNL1       -0.4683
     47 C         139.9351  142.9195  170.4080 C.3     1  UNL1        0.2526
@<TRIPOS>BOND
     1    44    45    1
     2    45    27    1
     3    27    28   ar
     4    28    29   ar
     5    29    30   ar
     6    30    31   ar
     7    31    32   ar
     8    32    46    1
     9    46    47    1
    10    30    33    1
    11    33    34    1
    12    34    35   ar
    13    35    36   ar
    14    36    37   ar
    15    37    38   ar
    16    38    26    1
    17    26     1    1
    18     1     2   ar
    19     2     3   ar
    20     3     4   ar
    21     4     8    1
    22     8     9   am
    23     9    10    2
    24     9    12    1
    25    12    15    1
    26    15    16    2
    27    15    17   am
    28    17    19    1
    29    19    20   ar
    30    20    21   ar
    31    21    22   ar
    32    22    23    1
    33    22    24   ar
    34    24    25   ar
    35    12    13    1
    36    13    14    1
    37     4     5   ar
    38     5     6   ar
    39     6     7    1
    40    38    39   ar
    41    39    40    1
    42    40    41    1
    43    32    27   ar
    44    39    34   ar
    45    41    29    1
    46     6     1   ar
    47    14    12    1
    48    25    19   ar
    49    33    42    1
    50     8    11    1
    51    17    18    1
    52    40    43    1
@<TRIPOS>MOLECULE
*****
 47 52 0 0 0
SMALL
GASTEIGER

@<TRIPOS>ATOM
      1 C         142.4817  138.6669  159.8995 C.ar    1  UNL1        0.1745
      2 C         141.0064  138.3951  159.9061 C.ar    1  UNL1        0.0412
      3 C         140.1989  138.6687  161.1402 C.ar    1  UNL1        0.0180
      4 C         140.8666  139.2141  162.3678 C.ar    1  UNL1        0.0528
      5 C         142.3417  139.4859  162.3612 C.ar    1  UNL1        0.0475
      6 C         143.1493  139.2123  161.1271 C.ar    1  UNL1        0.1757
      7 F         144.6244  139.4841  161.1205 F       1  UNL1       -0.2009
      8 N         140.0590  139.4877  163.6019 N.am    1  UNL1       -0.2835
      9 C         140.1605  138.5694  164.7835 C.2     1  UNL1        0.2335
     10 O         141.0696  137.3775  164.7311 O.2     1  UNL1       -0.2743
     11 H         139.4623  140.2700  163.6363 H       1  UNL1        0.1549
     12 C         139.3530  138.8430  166.0176 C.3     1  UNL1        0.1377
     13 C         138.2292  138.7811  167.0092 C.3     1  UNL1        0.0183
     14 C         138.1620  137.9719  165.7479 C.3     1  UNL1        0.0183
     15 C         140.2634  139.8092  166.7158 C.2     1  UNL1        0.2335
     16 O         141.2876  140.5750  165.9318 O.2     1  UNL1       -0.2743
     17 N         140.1498  140.0095  168.1980 N.am    1  UNL1       -0.2835
     18 H         139.4776  139.5069  168.7126 H       1  UNL1        0.1549
     19 C         141.0603  140.9757  168.8962 C.ar    1  UNL1        0.0505
     20 C         140.5642  142.3433  169.2618 C.ar    1  UNL1        0.0170
     21 C         141.4746  143.3096  169.9600 C.ar    1  UNL1        0.0309
     22 C         142.8812  142.9083  170.2925 C.ar    1  UNL1        0.1402
     23 F         143.7916  143.8746  170.9907 F       1  UNL1       -0.2042
     24 C         143.3773  141.5407  169.9269 C.ar    1  UNL1        0.0309
     25 C         142.4668  140.5744  169.2287 C.ar    1  UNL1        0.0170
     26 O         143.2892  138.3933  158.6654 O.3     1  UNL1       -0.4326
     27 C         142.8556  130.7398  156.1681 C.ar    1  UNL1        0.1722
     28 C         143.2468  131.8455  157.1032 C.ar    1  UNL1        0.0387
     29 C         142.8791  133.2640  156.7828 C.ar    1  UNL1        0.0140
     30 C         142.1201  133.5768  155.5273 C.ar    1  UNL1        0.0502
     31 C         141.7290  132.4711  154.5922 C.ar    1  UNL1        0.0544
     32 C         142.0967  131.0526  154.9126 C.ar    1  UNL1        0.1736
     33 N         141.6576  134.9112  155.0221 N.pl3   1  UNL1       -0.2969
     34 C         141.8397  136.2625  155.6474 C.ar    1  UNL1        0.1518
     35 N         141.2203  137.3419  154.8100 N.ar    1  UNL1       -0.2074
     36 C         141.2906  138.7717  155.2578 C.ar    1  UNL1        0.2028
     37 N         141.9802  139.1222  156.5429 N.ar    1  UNL1       -0.1879
     38 C         142.5996  138.0428  157.3803 C.ar    1  UNL1        0.2473
     39 C         142.5293  136.6130  156.9326 C.ar    1  UNL1        0.1313
     40 N         143.2072  135.6988  157.9097 N.pl3   1  UNL1       -0.3232
     41 C         143.3628  134.2084  157.8431 C.3     1  UNL1        0.1158
     42 H         141.1701  134.8986  154.1669 H       1  UNL1        0.1536
     43 H         143.6021  136.1346  158.6992 H       1  UNL1        0.1473
     44 C         144.4530  128.7106  155.8844 C.3     1  UNL1        0.2526
     45 O         143.2233  129.3213  156.4884 O.3     1  UNL1       -0.4684
     46 O         141.7055  129.9470  153.9775 O.3     1  UNL1       -0.4683
     47 C         140.2572  129.6912  153.6827 C.3     1  UNL1        0.2526
@<TRIPOS>BOND
     1    44    45    1
     2    45    27    1
     3    27    28   ar
     4    28    29   ar
     5    29    30   ar
     6    30    31   ar
     7    31    32   ar
     8    32    46    1
     9    46    47    1
    10    30    33    1
    11    33    34    1
    12    34    35   ar
    13    35    36   ar
    14    36    37   ar
    15    37    38   ar
    16    38    26    1
    17    26     1    1
    18     1     2   ar
    19     2     3   ar
    20     3     4   ar
    21     4     8    1
    22     8     9   am
    23     9    10    2
    24     9    12    1
    25    12    15    1
    26    15    16    2
    27    15    17   am
    28    17    19    1
    29    19    20   ar
    30    20    21   ar
    31    21    22   ar
    32    22    23    1
    33    22    24   ar
    34    24    25   ar
    35    12    13    1
    36    13    14    1
    37     4     5   ar
    38     5     6   ar
    39     6     7    1
    40    38    39   ar
    41    39    40    1
    42    40    41    1
    43    32    27   ar
    44    39    34   ar
    45    41    29    1
    46     6     1   ar
    47    14    12    1
    48    25    19   ar
    49    33    42    1
    50     8    11    1
    51    17    18    1
    52    40    43    1
@<TRIPOS>MOLECULE
*****
 47 52 0 0 0
SMALL
GASTEIGER

@<TRIPOS>ATOM
      1 C         138.2715  140.5404  158.0938 C.ar    1  UNL1        0.1745
      2 C         138.0241  142.0003  158.3339 C.ar    1  UNL1        0.0412
      3 C         138.4581  142.6325  159.6230 C.ar    1  UNL1        0.0180
      4 C         139.1395  141.8048  160.6722 C.ar    1  UNL1        0.0528
      5 C         139.3868  140.3450  160.4322 C.ar    1  UNL1        0.0475
      6 C         138.9528  139.7127  159.1430 C.ar    1  UNL1        0.1757
      7 F         139.2002  138.2529  158.9030 F       1  UNL1       -0.2009
      8 N         139.5735  142.4371  161.9614 N.am    1  UNL1       -0.2835
      9 C         138.5890  142.6126  163.0794 C.2     1  UNL1        0.2335
     10 O         137.1705  142.1559  162.9083 O.2     1  UNL1       -0.2743
     11 H         140.5045  142.7369  162.0737 H       1  UNL1        0.1549
     12 C         139.0230  143.2449  164.3685 C.3     1  UNL1        0.1377
     13 C         139.0616  144.1918  165.5311 C.3     1  UNL1        0.0183
     14 C         138.0352  144.3706  164.4520 C.3     1  UNL1        0.0183
     15 C         140.1615  142.3387  164.7327 C.2     1  UNL1        0.2335
     16 O         141.5713  142.7409  164.4152 O.2     1  UNL1       -0.2743
     17 N         139.8903  141.0304  165.4144 N.am    1  UNL1       -0.2835
     18 H         138.9650  140.7664  165.6228 H       1  UNL1        0.1549
     19 C         141.0289  140.1243  165.7786 C.ar    1  UNL1        0.0505
     20 C         141.4696  139.0534  164.8252 C.ar    1  UNL1        0.0170
     21 C         142.6082  138.1472  165.1892 C.ar    1  UNL1        0.0309
     22 C         143.3060  138.3120  166.5067 C.ar    1  UNL1        0.1402
     23 F         144.4446  137.4059  166.8708 F       1  UNL1       -0.2042
     24 C         142.8654  139.3829  167.4601 C.ar    1  UNL1        0.0309
     25 C         141.7268  140.2891  167.0961 C.ar    1  UNL1        0.0170
     26 O         137.8375  139.9082  156.8047 O.3     1  UNL1       -0.4326
     27 C         129.7782  140.0329  156.9869 C.ar    1  UNL1        0.1722
     28 C         131.1434  139.6256  157.4565 C.ar    1  UNL1        0.0387
     29 C         132.3632  140.1334  156.7464 C.ar    1  UNL1        0.0140
     30 C         132.2178  141.0485  155.5667 C.ar    1  UNL1        0.0502
     31 C         130.8527  141.4557  155.0972 C.ar    1  UNL1        0.0544
     32 C         129.6329  140.9479  155.8073 C.ar    1  UNL1        0.1736
     33 N         133.2941  141.6643  154.7228 N.pl3   1  UNL1       -0.2969
     34 C         134.7815  141.5173  154.8498 C.ar    1  UNL1        0.1518
     35 N         135.5021  142.3060  153.7970 N.ar    1  UNL1       -0.2074
     36 C         137.0012  142.2955  153.7467 C.ar    1  UNL1        0.2028
     37 N         137.7796  141.4962  154.7493 N.ar    1  UNL1       -0.1879
     38 C         137.0590  140.7075  155.8021 C.ar    1  UNL1        0.2473
     39 C         135.5599  140.7180  155.8524 C.ar    1  UNL1        0.1313
     40 N         135.0433  139.8684  156.9755 N.pl3   1  UNL1       -0.3232
     41 C         133.6206  139.6082  157.3734 C.3     1  UNL1        0.1158
     42 H         132.9832  142.2414  153.9882 H       1  UNL1        0.1536
     43 H         135.7286  139.4226  157.5240 H       1  UNL1        0.1473
     44 C         128.4443  139.6660  159.1860 C.3     1  UNL1        0.2526
     45 O         128.5584  139.5251  157.6969 O.3     1  UNL1       -0.4684
     46 O         128.2678  141.3553  155.3377 O.3     1  UNL1       -0.4683
     47 C         128.1140  142.5034  154.3848 C.3     1  UNL1        0.2526
@<TRIPOS>BOND
     1    44    45    1
     2    45    27    1
     3    27    28   ar
     4    28    29   ar
     5    29    30   ar
     6    30    31   ar
     7    31    32   ar
     8    32    46    1
     9    46    47    1
    10    30    33    1
    11    33    34    1
    12    34    35   ar
    13    35    36   ar
    14    36    37   ar
    15    37    38   ar
    16    38    26    1
    17    26     1    1
    18     1     2   ar
    19     2     3   ar
    20     3     4   ar
    21     4     8    1
    22     8     9   am
    23     9    10    2
    24     9    12    1
    25    12    15    1
    26    15    16    2
    27    15    17   am
    28    17    19    1
    29    19    20   ar
    30    20    21   ar
    31    21    22   ar
    32    22    23    1
    33    22    24   ar
    34    24    25   ar
    35    12    13    1
    36    13    14    1
    37     4     5   ar
    38     5     6   ar
    39     6     7    1
    40    38    39   ar
    41    39    40    1
    42    40    41    1
    43    32    27   ar
    44    39    34   ar
    45    41    29    1
    46     6     1   ar
    47    14    12    1
    48    25    19   ar
    49    33    42    1
    50     8    11    1
    51    17    18    1
    52    40    43    1
@<TRIPOS>MOLECULE
*****
 47 52 0 0 0
SMALL
GASTEIGER

@<TRIPOS>ATOM
      1 C         138.6638  140.7616  160.3729 C.ar    1  UNL1        0.1745
      2 C         139.1294  141.6444  159.2531 C.ar    1  UNL1        0.0412
      3 C         139.9784  141.0772  158.1543 C.ar    1  UNL1        0.0180
      4 C         140.3618  139.6272  158.1752 C.ar    1  UNL1        0.0528
      5 C         139.8963  138.7444  159.2950 C.ar    1  UNL1        0.0475
      6 C         139.0473  139.3116  160.3939 C.ar    1  UNL1        0.1757
      7 F         138.5818  138.4288  161.5136 F       1  UNL1       -0.2009
      8 N         141.2109  139.0600  157.0763 N.am    1  UNL1       -0.2835
      9 C         142.6512  138.7311  157.3351 C.2     1  UNL1        0.2335
     10 O         143.2427  138.9694  158.6929 O.2     1  UNL1       -0.2743
     11 H         140.8227  138.9036  156.1852 H       1  UNL1        0.1549
     12 C         143.5002  138.1639  156.2363 C.3     1  UNL1        0.1377
     13 C         144.4838  138.0990  155.1057 C.3     1  UNL1        0.0183
     14 C         144.1829  139.4131  155.7634 C.3     1  UNL1        0.0183
     15 C         143.1123  136.7179  156.3274 C.2     1  UNL1        0.2335
     16 O         141.7719  136.3343  156.8807 O.2     1  UNL1       -0.2743
     17 N         144.0649  135.6553  155.8653 N.am    1  UNL1       -0.2835
     18 H         144.9447  135.9070  155.5021 H       1  UNL1        0.1549
     19 C         143.6770  134.2092  155.9565 C.ar    1  UNL1        0.0505
     20 C         144.3420  133.3163  156.9617 C.ar    1  UNL1        0.0170
     21 C         143.9542  131.8701  157.0530 C.ar    1  UNL1        0.0309
     22 C         142.9013  131.3170  156.1390 C.ar    1  UNL1        0.1402
     23 F         142.5134  129.8708  156.2303 F       1  UNL1       -0.2042
     24 C         142.2362  132.2098  155.1338 C.ar    1  UNL1        0.0309
     25 C         142.6241  133.6560  155.0425 C.ar    1  UNL1        0.0170
     26 O         137.8148  141.3288  161.4718 O.3     1  UNL1       -0.4326
     27 C         140.6712  140.3847  168.9518 C.ar    1  UNL1        0.1722
     28 C         140.0844  139.9219  167.6512 C.ar    1  UNL1        0.0387
     29 C         139.7925  140.9141  166.5648 C.ar    1  UNL1        0.0140
     30 C         140.0873  142.3692  166.7790 C.ar    1  UNL1        0.0502
     31 C         140.6741  142.8319  168.0796 C.ar    1  UNL1        0.0544
     32 C         140.9660  141.8397  169.1660 C.ar    1  UNL1        0.1736
     33 N         139.8745  143.5153  165.8350 N.pl3   1  UNL1       -0.2969
     34 C         139.3143  143.4895  164.4438 C.ar    1  UNL1        0.1518
     35 N         139.2722  144.8639  163.8444 N.ar    1  UNL1       -0.2074
     36 C         138.7443  145.0599  162.4542 C.ar    1  UNL1        0.2028
     37 N         138.2585  143.8815  161.6633 N.ar    1  UNL1       -0.1879
     38 C         138.3006  142.5072  162.2626 C.ar    1  UNL1        0.2473
     39 C         138.8285  142.3111  163.6529 C.ar    1  UNL1        0.1313
     40 N         138.7830  140.8676  164.0580 N.pl3   1  UNL1       -0.3232
     41 C         139.2120  140.2458  165.3538 C.3     1  UNL1        0.1158
     42 H         140.1373  144.4017  166.1733 H       1  UNL1        0.1536
     43 H         138.4241  140.2460  163.3841 H       1  UNL1        0.1473
     44 C         142.3544  138.8599  170.2135 C.3     1  UNL1        0.2526
     45 O         140.9631  139.3925  170.0382 O.3     1  UNL1       -0.4684
     46 O         141.5528  142.3027  170.4665 O.3     1  UNL1       -0.4683
     47 C         142.9032  142.9551  170.4901 C.3     1  UNL1        0.2526
@<TRIPOS>BOND
     1    44    45    1
     2    45    27    1
     3    27    28   ar
     4    28    29   ar
     5    29    30   ar
     6    30    31   ar
     7    31    32   ar
     8    32    46    1
     9    46    47    1
    10    30    33    1
    11    33    34    1
    12    34    35   ar
    13    35    36   ar
    14    36    37   ar
    15    37    38   ar
    16    38    26    1
    17    26     1    1
    18     1     2   ar
    19     2     3   ar
    20     3     4   ar
    21     4     8    1
    22     8     9   am
    23     9    10    2
    24     9    12    1
    25    12    15    1
    26    15    16    2
    27    15    17   am
    28    17    19    1
    29    19    20   ar
    30    20    21   ar
    31    21    22   ar
    32    22    23    1
    33    22    24   ar
    34    24    25   ar
    35    12    13    1
    36    13    14    1
    37     4     5   ar
    38     5     6   ar
    39     6     7    1
    40    38    39   ar
    41    39    40    1
    42    40    41    1
    43    32    27   ar
    44    39    34   ar
    45    41    29    1
    46     6     1   ar
    47    14    12    1
    48    25    19   ar
    49    33    42    1
    50     8    11    1
    51    17    18    1
    52    40    43    1
@<TRIPOS>MOLECULE
*****
 47 52 0 0 0
SMALL
GASTEIGER

@<TRIPOS>ATOM
      1 C         142.6847  139.3775  159.3038 C.ar    1  UNL1        0.1745
      2 C         142.4883  140.8568  159.1510 C.ar    1  UNL1        0.0412
      3 C         141.9586  141.6655  160.2978 C.ar    1  UNL1        0.0180
      4 C         141.6251  140.9950  161.5976 C.ar    1  UNL1        0.0528
      5 C         141.8214  139.5158  161.7504 C.ar    1  UNL1        0.0475
      6 C         142.3512  138.7070  160.6035 C.ar    1  UNL1        0.1757
      7 F         142.5475  137.2278  160.7564 F       1  UNL1       -0.2009
      8 N         141.0954  141.8038  162.7444 N.am    1  UNL1       -0.2835
      9 C         139.6247  142.0786  162.8523 C.2     1  UNL1        0.2335
     10 O         138.6838  141.5447  161.8132 O.2     1  UNL1       -0.2743
     11 H         141.7129  142.1542  163.4264 H       1  UNL1        0.1549
     12 C         139.0950  142.8874  163.9991 C.3     1  UNL1        0.1377
     13 C         138.2722  143.8851  164.7590 C.3     1  UNL1        0.0183
     14 C         138.0671  143.7125  163.2831 C.3     1  UNL1        0.0183
     15 C         139.9389  142.3431  165.1134 C.2     1  UNL1        0.2335
     16 O         141.1618  143.0878  165.5606 O.2     1  UNL1       -0.2743
     17 N         139.5599  141.0542  165.7805 N.am    1  UNL1       -0.2835
     18 H         138.7573  140.5654  165.4870 H       1  UNL1        0.1549
     19 C         140.4038  140.5100  166.8948 C.ar    1  UNL1        0.0505
     20 C         139.8957  140.5439  168.3057 C.ar    1  UNL1        0.0170
     21 C         140.7396  139.9997  169.4201 C.ar    1  UNL1        0.0309
     22 C         142.0915  139.4217  169.1235 C.ar    1  UNL1        0.1402
     23 F         142.9354  138.8775  170.2379 F       1  UNL1       -0.2042
     24 C         142.5997  139.3878  167.7126 C.ar    1  UNL1        0.0309
     25 C         141.7558  139.9319  166.5982 C.ar    1  UNL1        0.0170
     26 O         143.2144  138.5688  158.1569 O.3     1  UNL1       -0.4326
     27 C         142.8793  130.7101  156.3879 C.ar    1  UNL1        0.1722
     28 C         143.3801  131.9194  157.1207 C.ar    1  UNL1        0.0387
     29 C         142.8253  133.2751  156.7978 C.ar    1  UNL1        0.0140
     30 C         141.7699  133.4215  155.7420 C.ar    1  UNL1        0.0502
     31 C         141.2693  132.2123  155.0092 C.ar    1  UNL1        0.0544
     32 C         141.8240  130.8565  155.3322 C.ar    1  UNL1        0.1736
     33 N         141.0875  134.6707  155.2687 N.pl3   1  UNL1       -0.2969
     34 C         141.2919  136.0819  155.7343 C.ar    1  UNL1        0.1518
     35 N         140.4023  137.0371  154.9953 N.ar    1  UNL1       -0.2074
     36 C         140.4501  138.5028  155.3102 C.ar    1  UNL1        0.2028
     37 N         141.3875  139.0134  156.3640 N.ar    1  UNL1       -0.1879
     38 C         142.2770  138.0582  157.1031 C.ar    1  UNL1        0.2473
     39 C         142.2293  136.5925  156.7882 C.ar    1  UNL1        0.1313
     40 N         143.1937  135.8179  157.6368 N.pl3   1  UNL1       -0.3232
     41 C         143.4590  134.3416  157.6411 C.3     1  UNL1        0.1158
     42 H         140.4167  134.5481  154.5586 H       1  UNL1        0.1536
     43 H         143.7225  136.3488  158.2753 H       1  UNL1        0.1473
     44 C         144.1468  129.1259  158.0109 C.3     1  UNL1        0.2526
     45 O         143.4341  129.3544  156.7109 O.3     1  UNL1       -0.4684
     46 O         141.3232  129.6473  154.5993 O.3     1  UNL1       -0.4683
     47 C         139.9577  129.1024  154.8963 C.3     1  UNL1        0.2526
@<TRIPOS>BOND
     1    44    45    1
     2    45    27    1
     3    27    28   ar
     4    28    29   ar
     5    29    30   ar
     6    30    31   ar
     7    31    32   ar
     8    32    46    1
     9    46    47    1
    10    30    33    1
    11    33    34    1
    12    34    35   ar
    13    35    36   ar
    14    36    37   ar
    15    37    38   ar
    16    38    26    1
    17    26     1    1
    18     1     2   ar
    19     2     3   ar
    20     3     4   ar
    21     4     8    1
    22     8     9   am
    23     9    10    2
    24     9    12    1
    25    12    15    1
    26    15    16    2
    27    15    17   am
    28    17    19    1
    29    19    20   ar
    30    20    21   ar
    31    21    22   ar
    32    22    23    1
    33    22    24   ar
    34    24    25   ar
    35    12    13    1
    36    13    14    1
    37     4     5   ar
    38     5     6   ar
    39     6     7    1
    40    38    39   ar
    41    39    40    1
    42    40    41    1
    43    32    27   ar
    44    39    34   ar
    45    41    29    1
    46     6     1   ar
    47    14    12    1
    48    25    19   ar
    49    33    42    1
    50     8    11    1
    51    17    18    1
    52    40    43    1
@<TRIPOS>MOLECULE
*****
 47 52 0 0 0
SMALL
GASTEIGER

@<TRIPOS>ATOM
      1 C         139.9043  142.0621  159.4260 C.ar    1  UNL1        0.1745
      2 C         140.4255  142.6973  158.1711 C.ar    1  UNL1        0.0412
      3 C         139.6751  142.5376  156.8821 C.ar    1  UNL1        0.0180
      4 C         138.4035  141.7428  156.8481 C.ar    1  UNL1        0.0528
      5 C         137.8822  141.1076  158.1030 C.ar    1  UNL1        0.0475
      6 C         138.6326  141.2672  159.3920 C.ar    1  UNL1        0.1757
      7 F         138.1114  140.6320  160.6469 F       1  UNL1       -0.2009
      8 N         137.6531  141.5831  155.5591 N.am    1  UNL1       -0.2835
      9 C         136.7774  142.6934  155.0586 C.2     1  UNL1        0.2335
     10 O         136.6520  143.9633  155.8470 O.2     1  UNL1       -0.2743
     11 H         137.7353  140.7497  155.0416 H       1  UNL1        0.1549
     12 C         136.0270  142.5337  153.7696 C.3     1  UNL1        0.1377
     13 C         135.6376  142.7195  152.3330 C.3     1  UNL1        0.0183
     14 C         136.8056  143.4730  152.8969 C.3     1  UNL1        0.0183
     15 C         134.9879  141.5390  154.1946 C.2     1  UNL1        0.2335
     16 O         134.6870  140.3521  153.3282 O.2     1  UNL1       -0.2743
     17 N         134.2495  141.7312  155.4861 N.am    1  UNL1       -0.2835
     18 H         134.4469  142.5102  156.0549 H       1  UNL1        0.1549
     19 C         133.2103  140.7364  155.9111 C.ar    1  UNL1        0.0505
     20 C         131.7571  141.1055  155.8685 C.ar    1  UNL1        0.0170
     21 C         130.7178  140.1108  156.2934 C.ar    1  UNL1        0.0309
     22 C         131.1318  138.7471  156.7609 C.ar    1  UNL1        0.1402
     23 F         130.0925  137.7523  157.1858 F       1  UNL1       -0.2042
     24 C         132.5850  138.3779  156.8036 C.ar    1  UNL1        0.0309
     25 C         133.6243  139.3726  156.3786 C.ar    1  UNL1        0.0170
     26 O         140.6547  142.2217  160.7150 O.3     1  UNL1       -0.4326
     27 C         142.4609  140.7483  168.4330 C.ar    1  UNL1        0.1722
     28 C         142.5185  140.5104  166.9530 C.ar    1  UNL1        0.0387
     29 C         141.7493  141.3982  166.0202 C.ar    1  UNL1        0.0140
     30 C         140.9225  142.5238  166.5674 C.ar    1  UNL1        0.0502
     31 C         140.8649  142.7616  168.0472 C.ar    1  UNL1        0.0544
     32 C         141.6341  141.8738  168.9800 C.ar    1  UNL1        0.1736
     33 N         140.0857  143.5189  165.8193 N.pl3   1  UNL1       -0.2969
     34 C         139.8691  143.6343  164.3395 C.ar    1  UNL1        0.1518
     35 N         138.9545  144.7757  164.0069 N.ar    1  UNL1       -0.2074
     36 C         138.6067  145.0658  162.5769 C.ar    1  UNL1        0.2028
     37 N         139.1734  144.2144  161.4796 N.ar    1  UNL1       -0.1879
     38 C         140.0880  143.0731  161.8123 C.ar    1  UNL1        0.2473
     39 C         140.4358  142.7830  163.2422 C.ar    1  UNL1        0.1313
     40 N         141.3591  141.6060  163.3538 N.pl3   1  UNL1       -0.3232
     41 C         141.9437  140.9897  164.5900 C.3     1  UNL1        0.1158
     42 H         139.6167  144.1844  166.3728 H       1  UNL1        0.1536
     43 H         141.6152  141.1820  162.5030 H       1  UNL1        0.1473
     44 C         142.5624  138.6717  169.9911 C.3     1  UNL1        0.2526
     45 O         143.2301  139.8605  169.3658 O.3     1  UNL1       -0.4684
     46 O         141.5764  142.1117  170.4599 O.3     1  UNL1       -0.4683
     47 C         140.6118  141.3363  171.3072 C.3     1  UNL1        0.2526
@<TRIPOS>BOND
     1    44    45    1
     2    45    27    1
     3    27    28   ar
     4    28    29   ar
     5    29    30   ar
     6    30    31   ar
     7    31    32   ar
     8    32    46    1
     9    46    47    1
    10    30    33    1
    11    33    34    1
    12    34    35   ar
    13    35    36   ar
    14    36    37   ar
    15    37    38   ar
    16    38    26    1
    17    26     1    1
    18     1     2   ar
    19     2     3   ar
    20     3     4   ar
    21     4     8    1
    22     8     9   am
    23     9    10    2
    24     9    12    1
    25    12    15    1
    26    15    16    2
    27    15    17   am
    28    17    19    1
    29    19    20   ar
    30    20    21   ar
    31    21    22   ar
    32    22    23    1
    33    22    24   ar
    34    24    25   ar
    35    12    13    1
    36    13    14    1
    37     4     5   ar
    38     5     6   ar
    39     6     7    1
    40    38    39   ar
    41    39    40    1
    42    40    41    1
    43    32    27   ar
    44    39    34   ar
    45    41    29    1
    46     6     1   ar
    47    14    12    1
    48    25    19   ar
    49    33    42    1
    50     8    11    1
    51    17    18    1
    52    40    43    1
@<TRIPOS>MOLECULE
*****
 47 52 0 0 0
SMALL
GASTEIGER

@<TRIPOS>ATOM
      1 C         140.2089  143.8094  159.4130 C.ar    1  UNL1        0.1745
      2 C         140.6284  143.9564  157.9803 C.ar    1  UNL1        0.0412
      3 C         139.8322  143.2960  156.8941 C.ar    1  UNL1        0.0180
      4 C         138.6164  142.4886  157.2405 C.ar    1  UNL1        0.0528
      5 C         138.1969  142.3416  158.6730 C.ar    1  UNL1        0.0475
      6 C         138.9931  143.0020  159.7593 C.ar    1  UNL1        0.1757
      7 F         138.5735  142.8550  161.1919 F       1  UNL1       -0.2009
      8 N         137.8202  141.8282  156.1542 N.am    1  UNL1       -0.2835
      9 C         136.8109  142.6201  155.3769 C.2     1  UNL1        0.2335
     10 O         136.5977  144.0723  155.6859 O.2     1  UNL1       -0.2743
     11 H         137.9601  140.8750  155.9514 H       1  UNL1        0.1549
     12 C         136.0147  141.9597  154.2907 C.3     1  UNL1        0.1377
     13 C         135.5156  141.6173  152.9182 C.3     1  UNL1        0.0183
     14 C         136.5936  142.6463  153.0893 C.3     1  UNL1        0.0183
     15 C         135.1593  141.0437  155.1149 C.2     1  UNL1        0.2335
     16 O         135.6940  139.7138  155.5567 O.2     1  UNL1       -0.2743
     17 N         133.7691  141.4577  155.4971 N.am    1  UNL1       -0.2835
     18 H         133.4182  142.3306  155.2071 H       1  UNL1        0.1549
     19 C         132.9138  140.5417  156.3213 C.ar    1  UNL1        0.0505
     20 C         131.4204  140.5872  156.1869 C.ar    1  UNL1        0.0170
     21 C         130.5649  139.6712  157.0110 C.ar    1  UNL1        0.0309
     22 C         131.2028  138.7098  157.9695 C.ar    1  UNL1        0.1402
     23 F         130.3473  137.7938  158.7937 F       1  UNL1       -0.2042
     24 C         132.6961  138.6643  158.1040 C.ar    1  UNL1        0.0309
     25 C         133.5516  139.5803  157.2799 C.ar    1  UNL1        0.0170
     26 O         141.0051  144.4698  160.4992 O.3     1  UNL1       -0.4326
     27 C         140.8843  142.2442  168.2473 C.ar    1  UNL1        0.1722
     28 C         140.3256  142.8656  167.0015 C.ar    1  UNL1        0.0387
     29 C         141.1337  142.8692  165.7378 C.ar    1  UNL1        0.0140
     30 C         142.5005  142.2514  165.7199 C.ar    1  UNL1        0.0502
     31 C         143.0591  141.6301  166.9656 C.ar    1  UNL1        0.0544
     32 C         142.2510  141.6265  168.2293 C.ar    1  UNL1        0.1736
     33 N         143.4652  142.1484  164.5759 N.pl3   1  UNL1       -0.2969
     34 C         143.3015  142.6376  163.1674 C.ar    1  UNL1        0.1518
     35 N         144.5119  142.3304  162.3364 N.ar    1  UNL1       -0.2074
     36 C         144.5534  142.7364  160.8930 C.ar    1  UNL1        0.2028
     37 N         143.3844  143.4495  160.2806 N.ar    1  UNL1       -0.1879
     38 C         142.1740  143.7567  161.1116 C.ar    1  UNL1        0.2473
     39 C         142.1326  143.3507  162.5550 C.ar    1  UNL1        0.1313
     40 N         140.8387  143.7507  163.1998 N.pl3   1  UNL1       -0.3232
     41 C         140.3941  143.5365  164.6163 C.3     1  UNL1        0.1158
     42 H         144.3187  141.7004  164.7760 H       1  UNL1        0.1536
     43 H         140.1963  144.2154  162.6162 H       1  UNL1        0.1473
     44 C         139.2890  141.0227  169.8944 C.3     1  UNL1        0.2526
     45 O         140.0762  142.2407  169.5110 O.3     1  UNL1       -0.4684
     46 O         142.8097  141.0052  169.4750 O.3     1  UNL1       -0.4683
     47 C         142.5987  139.5448  169.7444 C.3     1  UNL1        0.2526
@<TRIPOS>BOND
     1    44    45    1
     2    45    27    1
     3    27    28   ar
     4    28    29   ar
     5    29    30   ar
     6    30    31   ar
     7    31    32   ar
     8    32    46    1
     9    46    47    1
    10    30    33    1
    11    33    34    1
    12    34    35   ar
    13    35    36   ar
    14    36    37   ar
    15    37    38   ar
    16    38    26    1
    17    26     1    1
    18     1     2   ar
    19     2     3   ar
    20     3     4   ar
    21     4     8    1
    22     8     9   am
    23     9    10    2
    24     9    12    1
    25    12    15    1
    26    15    16    2
    27    15    17   am
    28    17    19    1
    29    19    20   ar
    30    20    21   ar
    31    21    22   ar
    32    22    23    1
    33    22    24   ar
    34    24    25   ar
    35    12    13    1
    36    13    14    1
    37     4     5   ar
    38     5     6   ar
    39     6     7    1
    40    38    39   ar
    41    39    40    1
    42    40    41    1
    43    32    27   ar
    44    39    34   ar
    45    41    29    1
    46     6     1   ar
    47    14    12    1
    48    25    19   ar
    49    33    42    1
    50     8    11    1
    51    17    18    1
    52    40    43    1
@<TRIPOS>MOLECULE
*****
 47 52 0 0 0
SMALL
GASTEIGER

@<TRIPOS>ATOM
      1 C         142.8435  138.9990  158.5626 C.ar    1  UNL1        0.1745
      2 C         142.6386  140.4326  158.1717 C.ar    1  UNL1        0.0412
      3 C         142.1654  141.4274  159.1898 C.ar    1  UNL1        0.0180
      4 C         141.8971  140.9885  160.5989 C.ar    1  UNL1        0.0528
      5 C         142.1020  139.5550  160.9898 C.ar    1  UNL1        0.0475
      6 C         142.5752  138.5602  159.9717 C.ar    1  UNL1        0.1757
      7 F         142.7801  137.1266  160.3626 F       1  UNL1       -0.2009
      8 N         141.4239  141.9833  161.6170 N.am    1  UNL1       -0.2835
      9 C         142.4186  142.8106  162.3760 C.2     1  UNL1        0.2335
     10 O         143.8865  142.6432  162.1169 O.2     1  UNL1       -0.2743
     11 H         140.4604  142.0932  161.7870 H       1  UNL1        0.1549
     12 C         141.9453  143.8054  163.3940 C.3     1  UNL1        0.1377
     13 C         141.5145  145.1101  163.9956 C.3     1  UNL1        0.0183
     14 C         141.9031  145.0436  162.5483 C.3     1  UNL1        0.0183
     15 C         141.8231  142.9127  164.5932 C.2     1  UNL1        0.2335
     16 O         140.4673  142.5316  165.1096 O.2     1  UNL1       -0.2743
     17 N         143.0568  142.4011  165.2762 N.am    1  UNL1       -0.2835
     18 H         143.9467  142.6512  164.9374 H       1  UNL1        0.1549
     19 C         142.9345  141.5084  166.4755 C.ar    1  UNL1        0.0505
     20 C         142.9110  142.1019  167.8529 C.ar    1  UNL1        0.0170
     21 C         142.7887  141.2093  169.0522 C.ar    1  UNL1        0.0309
     22 C         142.6900  139.7232  168.8741 C.ar    1  UNL1        0.1402
     23 F         142.5677  138.8306  170.0734 F       1  UNL1       -0.2042
     24 C         142.7135  139.1297  167.4967 C.ar    1  UNL1        0.0309
     25 C         142.8358  140.0223  166.2974 C.ar    1  UNL1        0.0170
     26 O         143.3168  138.0043  157.5445 O.3     1  UNL1       -0.4326
     27 C         142.9053  130.0226  156.4839 C.ar    1  UNL1        0.1722
     28 C         143.4324  131.2888  157.0913 C.ar    1  UNL1        0.0387
     29 C         142.8709  132.6139  156.6685 C.ar    1  UNL1        0.0140
     30 C         141.7823  132.6728  155.6382 C.ar    1  UNL1        0.0502
     31 C         141.2553  131.4066  155.0308 C.ar    1  UNL1        0.0544
     32 C         141.8168  130.0815  155.4536 C.ar    1  UNL1        0.1736
     33 N         141.0881  133.8793  155.0791 N.pl3   1  UNL1       -0.2969
     34 C         141.3109  135.3248  155.4123 C.ar    1  UNL1        0.1518
     35 N         140.4003  136.2162  154.6210 N.ar    1  UNL1       -0.2074
     36 C         140.4618  137.7036  154.8043 C.ar    1  UNL1        0.2028
     37 N         141.4340  138.2997  155.7788 N.ar    1  UNL1       -0.1879
     38 C         142.3446  137.4083  156.5700 C.ar    1  UNL1        0.2473
     39 C         142.2831  135.9208  156.3868 C.ar    1  UNL1        0.1313
     40 N         143.2725  135.2185  157.2688 N.pl3   1  UNL1       -0.3232
     41 C         143.5341  133.7469  157.3942 C.3     1  UNL1        0.1158
     42 H         140.3945  133.6985  154.4043 H       1  UNL1        0.1536
     43 H         143.8229  135.8005  157.8411 H       1  UNL1        0.1473
     44 C         143.5041  128.3281  158.3601 C.3     1  UNL1        0.2526
     45 O         143.4669  128.6975  156.9068 O.3     1  UNL1       -0.4684
     46 O         141.2897  128.8154  154.8461 O.3     1  UNL1       -0.4683
     47 C         140.0942  128.1367  155.4461 C.3     1  UNL1        0.2526
@<TRIPOS>BOND
     1    44    45    1
     2    45    27    1
     3    27    28   ar
     4    28    29   ar
     5    29    30   ar
     6    30    31   ar
     7    31    32   ar
     8    32    46    1
     9    46    47    1
    10    30    33    1
    11    33    34    1
    12    34    35   ar
    13    35    36   ar
    14    36    37   ar
    15    37    38   ar
    16    38    26    1
    17    26     1    1
    18     1     2   ar
    19     2     3   ar
    20     3     4   ar
    21     4     8    1
    22     8     9   am
    23     9    10    2
    24     9    12    1
    25    12    15    1
    26    15    16    2
    27    15    17   am
    28    17    19    1
    29    19    20   ar
    30    20    21   ar
    31    21    22   ar
    32    22    23    1
    33    22    24   ar
    34    24    25   ar
    35    12    13    1
    36    13    14    1
    37     4     5   ar
    38     5     6   ar
    39     6     7    1
    40    38    39   ar
    41    39    40    1
    42    40    41    1
    43    32    27   ar
    44    39    34   ar
    45    41    29    1
    46     6     1   ar
    47    14    12    1
    48    25    19   ar
    49    33    42    1
    50     8    11    1
    51    17    18    1
    52    40    43    1
