@<TRIPOS>MOLECULE
*****
 30 33 0 0 0
SMALL
GASTEIGER

@<TRIPOS>ATOM
      1 N         139.5302  139.8266  167.1648 N.am    1  UNL1       -0.2723
      2 C         139.4507  139.9816  168.6547 C.2     1  UNL1        0.2685
      3 O         138.1917  139.6113  169.3812 O.2     1  UNL1       -0.2682
      4 C         145.9230  141.7067  163.4759 C.3     1  UNL1        0.0896
      5 N         144.6640  141.3365  164.2024 N.3     1  UNL1       -0.2715
      6 C         144.3212  139.9771  164.7360 C.3     1  UNL1        0.0722
      7 C         142.9721  140.0610  165.3863 C.3     1  UNL1        0.0190
      8 C         141.9264  139.2728  166.1179 C.3     1  UNL1        0.0213
      9 C         140.7892  140.1968  166.4383 C.3     1  UNL1        0.0761
     10 C         141.1319  141.5561  165.9048 C.3     1  UNL1        0.0213
     11 C         142.4810  141.4722  165.2546 C.3     1  UNL1        0.0190
     12 C         143.5267  142.2605  164.5229 C.3     1  UNL1        0.0722
     13 C         140.6303  140.5069  169.4181 C.ar    1  UNL1        0.1535
     14 C         141.0131  141.9496  169.5662 C.ar    1  UNL1        0.1012
     15 N         142.2535  142.0162  170.4070 N.ar    1  UNL1       -0.3057
     16 C         142.9821  143.2650  170.8062 C.3     1  UNL1        0.1321
     17 C         142.6373  140.6145  170.7785 C.ar    1  UNL1        0.1787
     18 N         141.6341  139.6817  170.1673 N.ar    1  UNL1       -0.2192
     19 C         138.3507  139.3012  166.4015 C.3     1  UNL1        0.1204
     20 C         138.4532  139.0801  164.9215 C.ar    1  UNL1       -0.0022
     21 C         138.7959  137.7205  164.3883 C.ar    1  UNL1       -0.0003
     22 C         138.8984  137.4994  162.9082 C.ar    1  UNL1        0.0293
     23 C         138.6582  138.6378  161.9614 C.ar    1  UNL1        0.1440
     24 F         138.7608  138.4166  160.4813 F       1  UNL1       -0.2042
     25 C         138.3156  139.9972  162.4946 C.ar    1  UNL1        0.0985
     26 C         138.2131  140.2184  163.9746 C.ar    1  UNL1        0.0035
     27 C         138.0755  141.1355  161.5477 C.3     1  UNL1        0.4207
     28 F         137.8353  142.2739  160.6008 F       1  UNL1       -0.1658
     29 F         139.1724  141.9167  162.2086 F       1  UNL1       -0.1658
     30 F         136.9786  140.3545  160.8869 F       1  UNL1       -0.1658
@<TRIPOS>BOND
     1     4     5    1
     2     5     6    1
     3     7     6    1
     4     7     8    1
     5     8     9    1
     6     9     1    1
     7     1    19    1
     8    19    20    1
     9    20    21   ar
    10    21    22   ar
    11    22    23   ar
    12    23    24    1
    13    23    25   ar
    14    25    27    1
    15    27    28    1
    16    27    29    1
    17    27    30    1
    18    25    26   ar
    19     1     2   am
    20     2     3    2
    21     2    13    1
    22    13    14   ar
    23    14    15   ar
    24    15    16    1
    25    15    17   ar
    26    17    18   ar
    27     9    10    1
    28    11    10    1
    29    11    12    1
    30    12     5    1
    31    11     7    1
    32    26    20   ar
    33    18    13   ar
@<TRIPOS>MOLECULE
*****
 30 33 0 0 0
SMALL
GASTEIGER

@<TRIPOS>ATOM
      1 N         142.0835  140.0990  164.9227 N.am    1  UNL1       -0.2723
      2 C         141.5910  138.7606  164.4579 C.2     1  UNL1        0.2685
      3 O         142.0858  137.5083  165.1190 O.2     1  UNL1       -0.2682
      4 C         139.5710  146.4576  161.5662 C.3     1  UNL1        0.0896
      5 N         140.0658  145.2053  162.2273 N.3     1  UNL1       -0.2715
      6 C         139.3895  144.4739  163.3487 C.3     1  UNL1        0.0722
      7 C         140.2295  143.2811  163.6975 C.3     1  UNL1        0.0190
      8 C         140.3307  142.0919  164.6061 C.3     1  UNL1        0.0213
      9 C         141.5887  141.3512  164.2617 C.3     1  UNL1        0.0761
     10 C         142.2651  142.0825  163.1403 C.3     1  UNL1        0.0213
     11 C         141.4251  143.2753  162.7916 C.3     1  UNL1        0.0190
     12 C         141.3239  144.4645  161.8829 C.3     1  UNL1        0.0722
     13 C         140.6035  138.6745  163.3320 C.ar    1  UNL1        0.1535
     14 C         140.9291  138.7189  161.8685 C.ar    1  UNL1        0.1012
     15 N         139.6440  138.6006  161.1039 N.ar    1  UNL1       -0.3057
     16 C         139.5035  138.6000  159.6105 C.3     1  UNL1        0.1321
     17 C         138.5242  138.4832  162.0949 C.ar    1  UNL1        0.1787
     18 N         139.1172  138.5288  163.4721 N.ar    1  UNL1       -0.2192
     19 C         143.0709  140.1850  166.0486 C.3     1  UNL1        0.1204
     20 C         142.5914  140.4190  167.4505 C.ar    1  UNL1       -0.0022
     21 C         142.5568  139.2840  168.4306 C.ar    1  UNL1       -0.0003
     22 C         142.0773  139.5179  169.8325 C.ar    1  UNL1        0.0293
     23 C         141.6323  140.8870  170.2543 C.ar    1  UNL1        0.1440
     24 F         141.1528  141.1209  171.6562 F       1  UNL1       -0.2042
     25 C         141.6668  142.0219  169.2742 C.ar    1  UNL1        0.0985
     26 C         142.1464  141.7879  167.8723 C.ar    1  UNL1        0.0035
     27 C         141.2218  143.3908  169.6960 C.3     1  UNL1        0.4207
     28 F         140.7768  144.7598  170.1178 F       1  UNL1       -0.1658
     29 F         142.4827  143.5555  170.4918 F       1  UNL1       -0.1658
     30 F         139.9611  143.2262  168.9002 F       1  UNL1       -0.1658
@<TRIPOS>BOND
     1     4     5    1
     2     5     6    1
     3     7     6    1
     4     7     8    1
     5     8     9    1
     6     9     1    1
     7     1    19    1
     8    19    20    1
     9    20    21   ar
    10    21    22   ar
    11    22    23   ar
    12    23    24    1
    13    23    25   ar
    14    25    27    1
    15    27    28    1
    16    27    29    1
    17    27    30    1
    18    25    26   ar
    19     1     2   am
    20     2     3    2
    21     2    13    1
    22    13    14   ar
    23    14    15   ar
    24    15    16    1
    25    15    17   ar
    26    17    18   ar
    27     9    10    1
    28    11    10    1
    29    11    12    1
    30    12     5    1
    31    11     7    1
    32    26    20   ar
    33    18    13   ar
@<TRIPOS>MOLECULE
*****
 30 33 0 0 0
SMALL
GASTEIGER

@<TRIPOS>ATOM
      1 N         140.8645  139.8085  165.0692 N.am    1  UNL1       -0.2723
      2 C         141.9539  138.9107  164.5622 C.2     1  UNL1        0.2685
      3 O         142.2096  137.5915  165.2287 O.2     1  UNL1       -0.2682
      4 C         139.5661  146.5071  161.6848 C.3     1  UNL1        0.0896
      5 N         139.8218  145.1879  162.3513 N.3     1  UNL1       -0.2715
      6 C         140.7501  144.9481  163.5049 C.3     1  UNL1        0.0722
      7 C         140.6961  143.4889  163.8479 C.3     1  UNL1        0.0190
      8 C         141.2365  142.4388  164.7728 C.3     1  UNL1        0.0213
      9 C         140.6088  141.1278  164.4027 C.3     1  UNL1        0.0761
     10 C         139.6805  141.3674  163.2491 C.3     1  UNL1        0.0213
     11 C         139.7345  142.8267  162.9062 C.3     1  UNL1        0.0190
     12 C         139.1941  143.8768  161.9813 C.3     1  UNL1        0.0722
     13 C         142.7876  139.3322  163.3886 C.ar    1  UNL1        0.1535
     14 C         142.5126  139.0083  161.9501 C.ar    1  UNL1        0.1012
     15 N         143.5977  139.6273  161.1199 N.ar    1  UNL1       -0.3057
     16 C         143.7164  139.5530  159.6264 C.3     1  UNL1        0.1321
     17 C         144.5434  140.3338  162.0453 C.ar    1  UNL1        0.1787
     18 N         144.0428  140.1514  163.4476 N.ar    1  UNL1       -0.2192
     19 C         140.0308  139.3871  166.2428 C.3     1  UNL1        0.1204
     20 C         140.2738  139.9950  167.5924 C.ar    1  UNL1       -0.0022
     21 C         139.1612  140.0619  168.5962 C.ar    1  UNL1       -0.0003
     22 C         139.4042  140.6698  169.9458 C.ar    1  UNL1        0.0293
     23 C         140.7600  141.2108  170.2916 C.ar    1  UNL1        0.1440
     24 F         141.0030  141.8187  171.6411 F       1  UNL1       -0.2042
     25 C         141.8725  141.1439  169.2877 C.ar    1  UNL1        0.0985
     26 C         141.6294  140.5360  167.9381 C.ar    1  UNL1        0.0035
     27 C         143.2281  141.6848  169.6335 C.3     1  UNL1        0.4207
     28 F         144.5838  142.2258  169.9793 F       1  UNL1       -0.1658
     29 F         142.9613  142.8944  168.7874 F       1  UNL1       -0.1658
     30 F         143.4950  140.4754  170.4796 F       1  UNL1       -0.1658
@<TRIPOS>BOND
     1     4     5    1
     2     5     6    1
     3     7     6    1
     4     7     8    1
     5     8     9    1
     6     9     1    1
     7     1    19    1
     8    19    20    1
     9    20    21   ar
    10    21    22   ar
    11    22    23   ar
    12    23    24    1
    13    23    25   ar
    14    25    27    1
    15    27    28    1
    16    27    29    1
    17    27    30    1
    18    25    26   ar
    19     1     2   am
    20     2     3    2
    21     2    13    1
    22    13    14   ar
    23    14    15   ar
    24    15    16    1
    25    15    17   ar
    26    17    18   ar
    27     9    10    1
    28    11    10    1
    29    11    12    1
    30    12     5    1
    31    11     7    1
    32    26    20   ar
    33    18    13   ar
@<TRIPOS>MOLECULE
*****
 30 33 0 0 0
SMALL
GASTEIGER

@<TRIPOS>ATOM
      1 N         139.5714  139.9157  167.0749 N.am    1  UNL1       -0.2723
      2 C         139.5101  140.0099  168.5706 C.2     1  UNL1        0.2685
      3 O         138.2462  139.6499  169.2937 O.2     1  UNL1       -0.2682
      4 C         145.9892  141.7438  163.4033 C.3     1  UNL1        0.0896
      5 N         144.7253  141.3838  164.1264 N.3     1  UNL1       -0.2715
      6 C         144.3430  140.0148  164.6056 C.3     1  UNL1        0.0722
      7 C         143.0032  140.1144  165.2726 C.3     1  UNL1        0.0190
      8 C         141.9388  139.3299  165.9810 C.3     1  UNL1        0.0213
      9 C         140.8353  140.2757  166.3518 C.3     1  UNL1        0.0761
     10 C         141.2175  141.6447  165.8727 C.3     1  UNL1        0.0213
     11 C         142.5573  141.5451  165.2057 C.3     1  UNL1        0.0190
     12 C         143.6217  142.3296  164.4973 C.3     1  UNL1        0.0722
     13 C         140.7129  140.4642  169.3434 C.ar    1  UNL1        0.1535
     14 C         141.1562  141.8850  169.5296 C.ar    1  UNL1        0.1012
     15 N         142.4007  141.8763  170.3669 N.ar    1  UNL1       -0.3057
     16 C         143.1822  143.0822  170.7973 C.3     1  UNL1        0.1321
     17 C         142.7266  140.4502  170.6981 C.ar    1  UNL1        0.1787
     18 N         141.6834  139.5773  170.0656 N.ar    1  UNL1       -0.2192
     19 C         138.3687  139.4614  166.3022 C.3     1  UNL1        0.1204
     20 C         138.1832  139.8970  164.8789 C.ar    1  UNL1       -0.0022
     21 C         137.6162  141.2526  164.5772 C.ar    1  UNL1       -0.0003
     22 C         137.4306  141.6882  163.1539 C.ar    1  UNL1        0.0293
     23 C         137.8121  140.7682  162.0322 C.ar    1  UNL1        0.1440
     24 F         137.6266  141.2038  160.6089 F       1  UNL1       -0.2042
     25 C         138.3791  139.4127  162.3339 C.ar    1  UNL1        0.0985
     26 C         138.5646  138.9771  163.7572 C.ar    1  UNL1        0.0035
     27 C         138.7606  138.4928  161.2123 C.3     1  UNL1        0.4207
     28 F         139.1420  137.5727  160.0905 F       1  UNL1       -0.1658
     29 F         139.9137  139.3888  160.8694 F       1  UNL1       -0.1658
     30 F         137.6075  137.5967  161.5550 F       1  UNL1       -0.1658
@<TRIPOS>BOND
     1     4     5    1
     2     5     6    1
     3     7     6    1
     4     7     8    1
     5     8     9    1
     6     9     1    1
     7     1    19    1
     8    19    20    1
     9    20    21   ar
    10    21    22   ar
    11    22    23   ar
    12    23    24    1
    13    23    25   ar
    14    25    27    1
    15    27    28    1
    16    27    29    1
    17    27    30    1
    18    25    26   ar
    19     1     2   am
    20     2     3    2
    21     2    13    1
    22    13    14   ar
    23    14    15   ar
    24    15    16    1
    25    15    17   ar
    26    17    18   ar
    27     9    10    1
    28    11    10    1
    29    11    12    1
    30    12     5    1
    31    11     7    1
    32    26    20   ar
    33    18    13   ar
@<TRIPOS>MOLECULE
*****
 30 33 0 0 0
SMALL
GASTEIGER

@<TRIPOS>ATOM
      1 N         138.9228  139.6552  165.0612 N.am    1  UNL1       -0.2723
      2 C         138.8589  138.4180  164.2155 C.2     1  UNL1        0.2685
      3 O         138.7220  137.0724  164.8641 O.2     1  UNL1       -0.2682
      4 C         139.6178  146.4877  161.7679 C.3     1  UNL1        0.0896
      5 N         139.4809  145.1421  162.4165 N.3     1  UNL1       -0.2715
      6 C         138.2039  144.5236  162.9030 C.3     1  UNL1        0.0722
      7 C         138.5308  143.1780  163.4797 C.3     1  UNL1        0.0190
      8 C         137.9436  141.9641  164.1367 C.3     1  UNL1        0.0213
      9 C         139.0597  141.0008  164.4126 C.3     1  UNL1        0.0761
     10 C         140.3367  141.6192  163.9261 C.3     1  UNL1        0.0213
     11 C         140.0098  142.9648  163.3495 C.3     1  UNL1        0.0190
     12 C         140.5970  144.1787  162.6924 C.3     1  UNL1        0.0722
     13 C         138.9318  138.5264  162.7211 C.ar    1  UNL1        0.1535
     14 C         140.1644  138.3546  161.8839 C.ar    1  UNL1        0.1012
     15 N         139.7793  138.5476  160.4470 N.ar    1  UNL1       -0.3057
     16 C         140.7028  138.4642  159.2679 C.3     1  UNL1        0.1321
     17 C         138.3088  138.8386  160.3963 C.ar    1  UNL1        0.1787
     18 N         137.7848  138.8255  161.8019 N.ar    1  UNL1       -0.2192
     19 C         138.8499  139.5468  166.5554 C.3     1  UNL1        0.1204
     20 C         140.0318  139.9338  167.3941 C.ar    1  UNL1       -0.0022
     21 C         141.4204  139.6115  166.9272 C.ar    1  UNL1       -0.0003
     22 C         142.6024  139.9985  167.7658 C.ar    1  UNL1        0.0293
     23 C         142.3956  140.7077  169.0714 C.ar    1  UNL1        0.1440
     24 F         143.5776  141.0947  169.9100 F       1  UNL1       -0.2042
     25 C         141.0071  141.0299  169.5382 C.ar    1  UNL1        0.0985
     26 C         139.8251  140.6429  168.6996 C.ar    1  UNL1        0.0035
     27 C         140.8004  141.7391  170.8437 C.3     1  UNL1        0.4207
     28 F         140.5937  142.4482  172.1493 F       1  UNL1       -0.1658
     29 F         141.0378  143.0560  170.1659 F       1  UNL1       -0.1658
     30 F         140.5630  140.4222  171.5215 F       1  UNL1       -0.1658
@<TRIPOS>BOND
     1     4     5    1
     2     5     6    1
     3     7     6    1
     4     7     8    1
     5     8     9    1
     6     9     1    1
     7     1    19    1
     8    19    20    1
     9    20    21   ar
    10    21    22   ar
    11    22    23   ar
    12    23    24    1
    13    23    25   ar
    14    25    27    1
    15    27    28    1
    16    27    29    1
    17    27    30    1
    18    25    26   ar
    19     1     2   am
    20     2     3    2
    21     2    13    1
    22    13    14   ar
    23    14    15   ar
    24    15    16    1
    25    15    17   ar
    26    17    18   ar
    27     9    10    1
    28    11    10    1
    29    11    12    1
    30    12     5    1
    31    11     7    1
    32    26    20   ar
    33    18    13   ar
@<TRIPOS>MOLECULE
*****
 30 33 0 0 0
SMALL
GASTEIGER

@<TRIPOS>ATOM
      1 N         140.7722  139.6832  164.9453 N.am    1  UNL1       -0.2723
      2 C         141.2164  138.5148  164.1162 C.2     1  UNL1        0.2685
      3 O         141.4475  137.1812  164.7627 O.2     1  UNL1       -0.2682
      4 C         139.5986  146.4551  161.6625 C.3     1  UNL1        0.0896
      5 N         139.8297  145.1214  162.3090 N.3     1  UNL1       -0.2715
      6 C         138.7895  144.0693  162.5563 C.3     1  UNL1        0.0722
      7 C         139.4585  142.9034  163.2219 C.3     1  UNL1        0.0190
      8 C         139.2292  141.5326  163.7860 C.3     1  UNL1        0.0213
      9 C         140.5410  141.0169  164.2988 C.3     1  UNL1        0.0761
     10 C         141.5812  142.0689  164.0515 C.3     1  UNL1        0.0213
     11 C         140.9122  143.2348  163.3859 C.3     1  UNL1        0.0190
     12 C         141.1416  144.6056  162.8218 C.3     1  UNL1        0.0722
     13 C         141.4295  138.6799  162.6406 C.ar    1  UNL1        0.1535
     14 C         142.6993  139.1246  161.9776 C.ar    1  UNL1        0.1012
     15 N         142.4649  139.1489  160.4962 N.ar    1  UNL1       -0.3057
     16 C         143.4689  139.5350  159.4509 C.3     1  UNL1        0.1321
     17 C         141.0501  138.7193  160.2437 C.ar    1  UNL1        0.1787
     18 N         140.4101  138.4294  161.5691 N.ar    1  UNL1       -0.2192
     19 C         140.5591  139.5181  166.4208 C.3     1  UNL1        0.1204
     20 C         141.1302  140.5218  167.3781 C.ar    1  UNL1       -0.0022
     21 C         142.5967  140.8360  167.3489 C.ar    1  UNL1       -0.0003
     22 C         143.1678  141.8397  168.3062 C.ar    1  UNL1        0.0293
     23 C         142.2725  142.5291  169.2927 C.ar    1  UNL1        0.1440
     24 F         142.8436  143.5328  170.2499 F       1  UNL1       -0.2042
     25 C         140.8061  142.2149  169.3218 C.ar    1  UNL1        0.0985
     26 C         140.2349  141.2112  168.3645 C.ar    1  UNL1        0.0035
     27 C         139.9108  142.9044  170.3082 C.3     1  UNL1        0.4207
     28 F         139.0155  143.5939  171.2947 F       1  UNL1       -0.1658
     29 F         139.5956  141.5835  170.9454 F       1  UNL1       -0.1658
     30 F         140.2260  144.2252  169.6711 F       1  UNL1       -0.1658
@<TRIPOS>BOND
     1     4     5    1
     2     5     6    1
     3     7     6    1
     4     7     8    1
     5     8     9    1
     6     9     1    1
     7     1    19    1
     8    19    20    1
     9    20    21   ar
    10    21    22   ar
    11    22    23   ar
    12    23    24    1
    13    23    25   ar
    14    25    27    1
    15    27    28    1
    16    27    29    1
    17    27    30    1
    18    25    26   ar
    19     1     2   am
    20     2     3    2
    21     2    13    1
    22    13    14   ar
    23    14    15   ar
    24    15    16    1
    25    15    17   ar
    26    17    18   ar
    27     9    10    1
    28    11    10    1
    29    11    12    1
    30    12     5    1
    31    11     7    1
    32    26    20   ar
    33    18    13   ar
@<TRIPOS>MOLECULE
*****
 30 33 0 0 0
SMALL
GASTEIGER

@<TRIPOS>ATOM
      1 N         142.6858  142.7862  164.7421 N.am    1  UNL1       -0.2723
      2 C         142.9429  144.1229  164.1121 C.2     1  UNL1        0.2685
      3 O         143.9524  145.0544  164.7148 O.2     1  UNL1       -0.2682
      4 C         137.5602  138.0562  161.6816 C.3     1  UNL1        0.0896
      5 N         138.5697  138.9877  162.2844 N.3     1  UNL1       -0.2715
      6 C         138.2791  140.0959  163.2525 C.3     1  UNL1        0.0722
      7 C         139.5767  140.7677  163.5913 C.3     1  UNL1        0.0190
      8 C         140.1991  141.8678  164.3990 C.3     1  UNL1        0.0213
      9 C         141.6764  141.8547  164.1394 C.3     1  UNL1        0.0761
     10 C         141.9670  140.7465  163.1713 C.3     1  UNL1        0.0213
     11 C         140.6694  140.0747  162.8325 C.3     1  UNL1        0.0190
     12 C         140.0470  138.9746  162.0248 C.3     1  UNL1        0.0722
     13 C         142.1906  144.5282  162.8792 C.ar    1  UNL1        0.1535
     14 C         142.5099  144.1105  161.4744 C.ar    1  UNL1        0.1012
     15 N         141.5036  144.7464  160.5617 N.ar    1  UNL1       -0.3057
     16 C         141.4483  144.5978  159.0701 C.3     1  UNL1        0.1321
     17 C         140.5624  145.5570  161.4025 C.ar    1  UNL1        0.1787
     18 N         140.9869  145.4222  162.8349 N.ar    1  UNL1       -0.2192
     19 C         143.4381  142.3810  165.9749 C.3     1  UNL1        0.1204
     20 C         142.7311  141.6531  167.0797 C.ar    1  UNL1       -0.0022
     21 C         142.9410  140.1790  167.2610 C.ar    1  UNL1       -0.0003
     22 C         142.2341  139.4511  168.3657 C.ar    1  UNL1        0.0293
     23 C         141.3173  140.1974  169.2891 C.ar    1  UNL1        0.1440
     24 F         140.6103  139.4695  170.3939 F       1  UNL1       -0.2042
     25 C         141.1074  141.6715  169.1077 C.ar    1  UNL1        0.0985
     26 C         141.8144  142.3994  168.0030 C.ar    1  UNL1        0.0035
     27 C         140.1907  142.4177  170.0311 C.3     1  UNL1        0.4207
     28 F         139.2739  143.1640  170.9545 F       1  UNL1       -0.1658
     29 F         139.0845  141.4571  169.7092 F       1  UNL1       -0.1658
     30 F         141.2968  143.3784  170.3530 F       1  UNL1       -0.1658
@<TRIPOS>BOND
     1     4     5    1
     2     5     6    1
     3     7     6    1
     4     7     8    1
     5     8     9    1
     6     9     1    1
     7     1    19    1
     8    19    20    1
     9    20    21   ar
    10    21    22   ar
    11    22    23   ar
    12    23    24    1
    13    23    25   ar
    14    25    27    1
    15    27    28    1
    16    27    29    1
    17    27    30    1
    18    25    26   ar
    19     1     2   am
    20     2     3    2
    21     2    13    1
    22    13    14   ar
    23    14    15   ar
    24    15    16    1
    25    15    17   ar
    26    17    18   ar
    27     9    10    1
    28    11    10    1
    29    11    12    1
    30    12     5    1
    31    11     7    1
    32    26    20   ar
    33    18    13   ar
@<TRIPOS>MOLECULE
*****
 30 33 0 0 0
SMALL
GASTEIGER

@<TRIPOS>ATOM
      1 N         138.8266  139.4987  165.2539 N.am    1  UNL1       -0.2723
      2 C         139.2088  138.2391  164.5346 C.2     1  UNL1        0.2685
      3 O         139.0372  136.9096  165.2077 O.2     1  UNL1       -0.2682
      4 C         139.6979  146.2494  161.8364 C.3     1  UNL1        0.0896
      5 N         139.5263  144.9199  162.5094 N.3     1  UNL1       -0.2715
      6 C         140.6306  144.0000  162.9388 C.3     1  UNL1        0.0722
      7 C         140.0071  142.7884  163.5660 C.3     1  UNL1        0.0190
      8 C         140.3042  141.4711  164.2190 C.3     1  UNL1        0.0213
      9 C         138.9982  140.8282  164.5808 C.3     1  UNL1        0.0761
     10 C         137.8940  141.7480  164.1515 C.3     1  UNL1        0.0213
     11 C         138.5175  142.9596  163.5243 C.3     1  UNL1        0.0190
     12 C         138.2204  144.2769  162.8713 C.3     1  UNL1        0.0722
     13 C         139.7625  138.3089  163.1423 C.ar    1  UNL1        0.1535
     14 C         138.9622  138.4445  161.8810 C.ar    1  UNL1        0.1012
     15 N         139.9188  138.4748  160.7260 N.ar    1  UNL1       -0.3057
     16 C         139.5488  138.6000  159.2778 C.3     1  UNL1        0.1321
     17 C         141.3104  138.3580  161.2735 C.ar    1  UNL1        0.1787
     18 N         141.2138  138.2554  162.7670 N.ar    1  UNL1       -0.2192
     19 C         138.2729  139.4288  166.6461 C.3     1  UNL1        0.1204
     20 C         139.0797  139.9441  167.8009 C.ar    1  UNL1       -0.0022
     21 C         138.5746  139.7756  169.2032 C.ar    1  UNL1       -0.0003
     22 C         139.3813  140.2910  170.3580 C.ar    1  UNL1        0.0293
     23 C         140.6933  140.9749  170.1104 C.ar    1  UNL1        0.1440
     24 F         141.5001  141.4902  171.2652 F       1  UNL1       -0.2042
     25 C         141.1984  141.1433  168.7082 C.ar    1  UNL1        0.0985
     26 C         140.3916  140.6279  167.5534 C.ar    1  UNL1        0.0035
     27 C         142.5103  141.8271  168.4606 C.3     1  UNL1        0.4207
     28 F         143.8222  142.5109  168.2131 F       1  UNL1       -0.1658
     29 F         141.8763  143.1527  168.7624 F       1  UNL1       -0.1658
     30 F         143.1442  140.5016  168.1589 F       1  UNL1       -0.1658
@<TRIPOS>BOND
     1     4     5    1
     2     5     6    1
     3     7     6    1
     4     7     8    1
     5     8     9    1
     6     9     1    1
     7     1    19    1
     8    19    20    1
     9    20    21   ar
    10    21    22   ar
    11    22    23   ar
    12    23    24    1
    13    23    25   ar
    14    25    27    1
    15    27    28    1
    16    27    29    1
    17    27    30    1
    18    25    26   ar
    19     1     2   am
    20     2     3    2
    21     2    13    1
    22    13    14   ar
    23    14    15   ar
    24    15    16    1
    25    15    17   ar
    26    17    18   ar
    27     9    10    1
    28    11    10    1
    29    11    12    1
    30    12     5    1
    31    11     7    1
    32    26    20   ar
    33    18    13   ar
@<TRIPOS>MOLECULE
*****
 30 33 0 0 0
SMALL
GASTEIGER

@<TRIPOS>ATOM
      1 N         141.0963  139.0630  164.4070 N.am    1  UNL1       -0.2723
      2 C         140.9763  137.9064  163.4595 C.2     1  UNL1        0.2685
      3 O         141.2095  136.5081  163.9496 O.2     1  UNL1       -0.2682
      4 C         139.9122  146.1634  161.9183 C.3     1  UNL1        0.0896
      5 N         140.1454  144.7651  162.4084 N.3     1  UNL1       -0.2715
      6 C         139.0839  143.7723  162.7795 C.3     1  UNL1        0.0722
      7 C         139.7635  142.5076  163.2139 C.3     1  UNL1        0.0190
      8 C         139.5275  141.1125  163.7117 C.3     1  UNL1        0.0213
      9 C         140.8631  140.4614  163.9169 C.3     1  UNL1        0.0761
     10 C         141.9246  141.4541  163.5459 C.3     1  UNL1        0.0213
     11 C         141.2450  142.7188  163.1114 C.3     1  UNL1        0.0190
     12 C         141.4810  144.1139  162.6136 C.3     1  UNL1        0.0722
     13 C         140.6231  138.1481  162.0218 C.ar    1  UNL1        0.1535
     14 C         141.5944  138.3694  160.9005 C.ar    1  UNL1        0.1012
     15 N         140.8082  138.5690  159.6387 N.ar    1  UNL1       -0.3057
     16 C         141.3791  138.8221  158.2749 C.3     1  UNL1        0.1321
     17 C         139.3509  138.4711  159.9802 C.ar    1  UNL1        0.1787
     18 N         139.2364  138.2110  161.4531 N.ar    1  UNL1       -0.2192
     19 C         141.4494  138.8213  165.8446 C.3     1  UNL1        0.1204
     20 C         141.3234  139.9320  166.8449 C.ar    1  UNL1       -0.0022
     21 C         139.9686  140.4623  167.2100 C.ar    1  UNL1       -0.0003
     22 C         139.8426  141.5730  168.2103 C.ar    1  UNL1        0.0293
     23 C         141.0714  142.1533  168.8454 C.ar    1  UNL1        0.1440
     24 F         140.9453  143.2640  169.8457 F       1  UNL1       -0.2042
     25 C         142.4261  141.6230  168.4803 C.ar    1  UNL1        0.0985
     26 C         142.5521  140.5123  167.4800 C.ar    1  UNL1        0.0035
     27 C         143.6548  142.2033  169.1154 C.3     1  UNL1        0.4207
     28 F         144.8836  142.7836  169.7506 F       1  UNL1       -0.1658
     29 F         144.0036  142.8798  167.8228 F       1  UNL1       -0.1658
     30 F         143.3061  141.5268  170.4080 F       1  UNL1       -0.1658
@<TRIPOS>BOND
     1     4     5    1
     2     5     6    1
     3     7     6    1
     4     7     8    1
     5     8     9    1
     6     9     1    1
     7     1    19    1
     8    19    20    1
     9    20    21   ar
    10    21    22   ar
    11    22    23   ar
    12    23    24    1
    13    23    25   ar
    14    25    27    1
    15    27    28    1
    16    27    29    1
    17    27    30    1
    18    25    26   ar
    19     1     2   am
    20     2     3    2
    21     2    13    1
    22    13    14   ar
    23    14    15   ar
    24    15    16    1
    25    15    17   ar
    26    17    18   ar
    27     9    10    1
    28    11    10    1
    29    11    12    1
    30    12     5    1
    31    11     7    1
    32    26    20   ar
    33    18    13   ar
