@<TRIPOS>MOLECULE
*****
 30 33 0 0 0
SMALL
GASTEIGER

@<TRIPOS>ATOM
      1 N         141.7518  141.8561  167.5051 N.pl3   1  UNL1       -0.3362
      2 H         142.6424  141.8997  167.9224 H       1  UNL1        0.1465
      3 C         140.6167  141.1927  168.2273 C.2     1  UNL1        0.0457
      4 C         140.3285  141.5460  169.6563 C.2     1  UNL1        0.1096
      5 C         139.1933  140.8826  170.3785 C.2     1  UNL1        0.2410
      6 N         138.3466  139.8660  169.6717 N.2     1  UNL1       -0.0338
      7 C         138.6350  139.5128  168.2427 C.2     1  UNL1        0.3606
      8 N         137.9776  138.5557  167.2930 N.2     1  UNL1       -0.0343
      9 C         138.7064  138.6275  165.9840 C.2     1  UNL1        0.2321
     10 C         139.8141  139.6290  166.1245 C.2     1  UNL1        0.0421
     11 C         139.7700  140.1762  167.5205 C.3     1  UNL1        0.1732
     12 C         141.1752  142.5625  170.3631 C.2     1  UNL1        0.2474
     13 N         142.0972  142.1344  171.4662 N.am    1  UNL1       -0.3252
     14 O         141.1000  144.0073  169.9669 O.2     1  UNL1       -0.2702
     15 H         142.1465  141.1861  171.7262 H       1  UNL1        0.1453
     16 H         142.6529  142.8016  171.9301 H       1  UNL1        0.1453
     17 N         141.0863  143.6472  163.4309 N.pl3   1  UNL1       -0.2919
     18 C         142.3185  142.8356  163.7012 C.3     1  UNL1        0.0939
     19 C         142.5404  142.2385  165.0593 C.3     1  UNL1        0.0410
     20 C         141.5300  142.4532  166.1470 C.3     1  UNL1        0.0722
     21 C         140.2978  143.2647  165.8767 C.3     1  UNL1        0.0410
     22 C         140.0760  143.8618  164.5186 C.3     1  UNL1        0.0939
     23 C         140.4209  145.4382  159.3566 C.ar    1  UNL1        0.1683
     24 C         141.4635  144.3769  159.5482 C.ar    1  UNL1        0.1299
     25 N         141.6853  143.7799  160.9063 N.ar    1  UNL1       -0.2253
     26 C         140.8645  144.2442  162.0727 C.ar    1  UNL1        0.1511
     27 C         139.8219  145.3055  161.8812 C.ar    1  UNL1        0.1338
     28 N         139.6001  145.9025  160.5231 N.ar    1  UNL1       -0.2290
     29 N         139.9774  146.6321  156.6404 N.1     1  UNL1       -0.1892
     30 C         140.1991  146.0351  157.9985 C.1     1  UNL1        0.1214
@<TRIPOS>BOND
     1    29    30    3
     2    30    23    1
     3    23    24   ar
     4    24    25   ar
     5    25    26   ar
     6    26    17    1
     7    17    18    1
     8    18    19    1
     9    19    20    1
    10    20     1    1
    11     1     3    1
    12     3     4    2
    13     4    12    1
    14    12    13   am
    15    12    14    2
    16     4     5    1
    17     5     6    2
    18     6     7    1
    19     7     8    2
    20     8     9    1
    21     9    10    2
    22    10    11    1
    23    20    21    1
    24    21    22    1
    25    26    27   ar
    26    27    28   ar
    27    28    23   ar
    28    22    17    1
    29    11     3    1
    30    11     7    1
    31     1     2    1
    32    13    15    1
    33    13    16    1
@<TRIPOS>MOLECULE
*****
 30 33 0 0 0
SMALL
GASTEIGER

@<TRIPOS>ATOM
      1 N         139.3173  140.5768  167.1815 N.pl3   1  UNL1       -0.3362
      2 H         138.4210  140.3901  167.5435 H       1  UNL1        0.1465
      3 C         140.5371  140.1265  167.9295 C.2     1  UNL1        0.0457
      4 C         140.6429  140.3680  169.4062 C.2     1  UNL1        0.1096
      5 C         141.8627  139.9178  170.1542 C.2     1  UNL1        0.2410
      6 N         142.9765  139.2260  169.4255 N.2     1  UNL1       -0.0338
      7 C         142.8706  138.9846  167.9489 C.2     1  UNL1        0.3606
      8 N         143.8010  138.3331  166.9691 N.2     1  UNL1       -0.0343
      9 C         143.1562  138.3806  165.6156 C.2     1  UNL1        0.2321
     10 C         141.8274  139.0616  165.7588 C.2     1  UNL1        0.0421
     11 C         141.6508  139.4349  167.2009 C.3     1  UNL1        0.1732
     12 C         139.5291  141.0597  170.1348 C.2     1  UNL1        0.2474
     13 N         139.7454  142.4277  170.7109 N.am    1  UNL1       -0.3252
     14 O         138.1989  140.3835  170.2873 O.2     1  UNL1       -0.2702
     15 H         140.6185  142.8715  170.6109 H       1  UNL1        0.1453
     16 H         139.0144  142.8817  171.1892 H       1  UNL1        0.1453
     17 N         139.7548  142.7811  163.2828 N.pl3   1  UNL1       -0.2919
     18 C         138.8658  141.5757  163.3673 C.3     1  UNL1        0.0939
     19 C         138.7200  140.8409  164.6668 C.3     1  UNL1        0.0410
     20 C         139.4631  141.3116  165.8819 C.3     1  UNL1        0.0722
     21 C         140.3520  142.5168  165.7975 C.3     1  UNL1        0.0410
     22 C         140.4978  143.2516  164.4978 C.3     1  UNL1        0.0939
     23 C         140.1922  144.9851  159.3840 C.ar    1  UNL1        0.1683
     24 C         140.4845  143.5154  159.4516 C.ar    1  UNL1        0.1299
     25 N         140.3386  142.7807  160.7512 N.ar    1  UNL1       -0.2253
     26 C         139.9006  143.5158  161.9832 C.ar    1  UNL1        0.1511
     27 C         139.6083  144.9854  161.9156 C.ar    1  UNL1        0.1338
     28 N         139.7542  145.7202  160.6160 N.ar    1  UNL1       -0.2290
     29 N         140.4838  146.4544  156.7848 N.1     1  UNL1       -0.1892
     30 C         140.3380  145.7198  158.0844 C.1     1  UNL1        0.1214
@<TRIPOS>BOND
     1    29    30    3
     2    30    23    1
     3    23    24   ar
     4    24    25   ar
     5    25    26   ar
     6    26    17    1
     7    17    18    1
     8    18    19    1
     9    19    20    1
    10    20     1    1
    11     1     3    1
    12     3     4    2
    13     4    12    1
    14    12    13   am
    15    12    14    2
    16     4     5    1
    17     5     6    2
    18     6     7    1
    19     7     8    2
    20     8     9    1
    21     9    10    2
    22    10    11    1
    23    20    21    1
    24    21    22    1
    25    26    27   ar
    26    27    28   ar
    27    28    23   ar
    28    22    17    1
    29    11     3    1
    30    11     7    1
    31     1     2    1
    32    13    15    1
    33    13    16    1
@<TRIPOS>MOLECULE
*****
 30 33 0 0 0
SMALL
GASTEIGER

@<TRIPOS>ATOM
      1 N         141.4910  139.4729  168.6767 N.pl3   1  UNL1       -0.3362
      2 H         141.4618  138.5977  169.1266 H       1  UNL1        0.1465
      3 C         141.1643  140.7210  169.4420 C.2     1  UNL1        0.0457
      4 C         139.7513  140.9925  169.8658 C.2     1  UNL1        0.1096
      5 C         139.4246  142.2406  170.6311 C.2     1  UNL1        0.2410
      6 N         140.5109  143.2170  170.9725 N.2     1  UNL1       -0.0338
      7 C         141.9239  142.9454  170.5487 C.2     1  UNL1        0.3606
      8 N         143.1953  143.7180  170.7399 N.2     1  UNL1       -0.0343
      9 C         144.3077  142.9475  170.0928 C.2     1  UNL1        0.2321
     10 C         143.7239  141.6987  169.5017 C.2     1  UNL1        0.0421
     11 C         142.2505  141.6973  169.7834 C.3     1  UNL1        0.1732
     12 C         138.6650  140.0162  169.5244 C.2     1  UNL1        0.2474
     13 N         137.6380  139.6466  170.5534 N.am    1  UNL1       -0.3252
     14 O         138.6056  139.4093  168.1539 O.2     1  UNL1       -0.2702
     15 H         137.6770  140.0449  171.4529 H       1  UNL1        0.1453
     16 H         136.9251  139.0058  170.3293 H       1  UNL1        0.1453
     17 N         142.6046  139.7290  164.3242 N.pl3   1  UNL1       -0.2919
     18 C         143.4358  138.9066  165.2639 C.3     1  UNL1        0.0939
     19 C         143.0646  138.8212  166.7148 C.3     1  UNL1        0.0410
     20 C         141.8622  139.5582  167.2258 C.3     1  UNL1        0.0722
     21 C         141.0311  140.3805  166.2862 C.3     1  UNL1        0.0410
     22 C         141.4024  140.4659  164.8353 C.3     1  UNL1        0.0939
     23 C         143.7184  139.9850  159.9718 C.ar    1  UNL1        0.1683
     24 C         143.0028  141.1266  160.6312 C.ar    1  UNL1        0.1299
     25 N         142.6315  141.0412  162.0820 N.ar    1  UNL1       -0.2253
     26 C         142.9759  139.8143  162.8733 C.ar    1  UNL1        0.1511
     27 C         143.6916  138.6729  162.2140 C.ar    1  UNL1        0.1338
     28 N         144.0629  138.7582  160.7631 N.ar    1  UNL1       -0.2290
     29 N         144.4609  140.1558  157.0701 N.1     1  UNL1       -0.1892
     30 C         144.0897  140.0704  158.5210 C.1     1  UNL1        0.1214
@<TRIPOS>BOND
     1    29    30    3
     2    30    23    1
     3    23    24   ar
     4    24    25   ar
     5    25    26   ar
     6    26    17    1
     7    17    18    1
     8    18    19    1
     9    19    20    1
    10    20     1    1
    11     1     3    1
    12     3     4    2
    13     4    12    1
    14    12    13   am
    15    12    14    2
    16     4     5    1
    17     5     6    2
    18     6     7    1
    19     7     8    2
    20     8     9    1
    21     9    10    2
    22    10    11    1
    23    20    21    1
    24    21    22    1
    25    26    27   ar
    26    27    28   ar
    27    28    23   ar
    28    22    17    1
    29    11     3    1
    30    11     7    1
    31     1     2    1
    32    13    15    1
    33    13    16    1
@<TRIPOS>MOLECULE
*****
 30 33 0 0 0
SMALL
GASTEIGER

@<TRIPOS>ATOM
      1 N         140.7761  137.8931  162.6576 N.pl3   1  UNL1       -0.3362
      2 H         140.5351  136.9437  162.5590 H       1  UNL1        0.1465
      3 C         140.3007  138.6676  163.8511 C.2     1  UNL1        0.0457
      4 C         138.9342  139.2863  163.8479 C.2     1  UNL1        0.1096
      5 C         138.4588  140.0607  165.0414 C.2     1  UNL1        0.2410
      6 N         139.3499  140.2164  166.2379 N.2     1  UNL1       -0.0338
      7 C         140.7163  139.5977  166.2411 C.2     1  UNL1        0.3606
      8 N         141.8090  139.5828  167.2686 N.2     1  UNL1       -0.0343
      9 C         142.9597  138.7991  166.7102 C.2     1  UNL1        0.2321
     10 C         142.5782  138.3297  165.3376 C.2     1  UNL1        0.0421
     11 C         141.1917  138.8233  165.0476 C.3     1  UNL1        0.1732
     12 C         138.0432  139.1306  162.6514 C.2     1  UNL1        0.2474
     13 N         137.2845  140.3116  162.1224 N.am    1  UNL1       -0.3252
     14 O         137.9108  137.7939  161.9837 O.2     1  UNL1       -0.2702
     15 H         137.3714  141.1889  162.5606 H       1  UNL1        0.1453
     16 H         136.6997  140.2094  161.3371 H       1  UNL1        0.1453
     17 N         143.3038  139.9095  159.5280 N.pl3   1  UNL1       -0.2919
     18 C         141.8095  140.0320  159.4785 C.3     1  UNL1        0.0939
     19 C         140.9670  139.3599  160.5217 C.3     1  UNL1        0.0410
     20 C         141.6186  138.5653  161.6144 C.3     1  UNL1        0.0722
     21 C         143.1128  138.4428  161.6640 C.3     1  UNL1        0.0410
     22 C         143.9554  139.1150  160.6207 C.3     1  UNL1        0.0939
     23 C         145.8314  141.9260  156.3983 C.ar    1  UNL1        0.1683
     24 C         145.3579  140.5183  156.1874 C.ar    1  UNL1        0.1299
     25 N         144.5154  139.8462  157.2306 N.ar    1  UNL1       -0.2253
     26 C         144.1464  140.5817  158.4848 C.ar    1  UNL1        0.1511
     27 C         144.6198  141.9893  158.6957 C.ar    1  UNL1        0.1338
     28 N         145.4623  142.6615  157.6524 N.ar    1  UNL1       -0.2290
     29 N         147.5164  143.2702  154.3118 N.1     1  UNL1       -0.1892
     30 C         146.6739  142.5981  155.3551 C.1     1  UNL1        0.1214
@<TRIPOS>BOND
     1    29    30    3
     2    30    23    1
     3    23    24   ar
     4    24    25   ar
     5    25    26   ar
     6    26    17    1
     7    17    18    1
     8    18    19    1
     9    19    20    1
    10    20     1    1
    11     1     3    1
    12     3     4    2
    13     4    12    1
    14    12    13   am
    15    12    14    2
    16     4     5    1
    17     5     6    2
    18     6     7    1
    19     7     8    2
    20     8     9    1
    21     9    10    2
    22    10    11    1
    23    20    21    1
    24    21    22    1
    25    26    27   ar
    26    27    28   ar
    27    28    23   ar
    28    22    17    1
    29    11     3    1
    30    11     7    1
    31     1     2    1
    32    13    15    1
    33    13    16    1
@<TRIPOS>MOLECULE
*****
 30 33 0 0 0
SMALL
GASTEIGER

@<TRIPOS>ATOM
      1 N         137.4341  140.2845  163.4552 N.pl3   1  UNL1       -0.3362
      2 H         136.5024  140.0588  163.6794 H       1  UNL1        0.1465
      3 C         138.2817  141.0348  164.4395 C.2     1  UNL1        0.0457
      4 C         138.8183  140.3357  165.6532 C.2     1  UNL1        0.1096
      5 C         139.6660  141.0860  166.6375 C.2     1  UNL1        0.2410
      6 N         139.9768  142.5354  166.4079 N.2     1  UNL1       -0.0338
      7 C         139.4401  143.2344  165.1941 C.2     1  UNL1        0.3606
      8 N         139.5781  144.6460  164.7057 N.2     1  UNL1       -0.0343
      9 C         138.8157  144.7681  163.4197 C.2     1  UNL1        0.2321
     10 C         138.2067  143.4320  163.1132 C.2     1  UNL1        0.0421
     11 C         138.5926  142.4841  164.2099 C.3     1  UNL1        0.1732
     12 C         138.5075  138.8864  165.8828 C.2     1  UNL1        0.2474
     13 N         139.3424  137.8270  165.2264 N.am    1  UNL1       -0.3252
     14 O         137.3617  138.4962  166.7688 O.2     1  UNL1       -0.2702
     15 H         140.0944  138.0830  164.6449 H       1  UNL1        0.1453
     16 H         139.1383  136.8758  165.3771 H       1  UNL1        0.1453
     17 N         139.1500  139.0651  159.4780 N.pl3   1  UNL1       -0.2919
     18 C         139.5388  138.3225  160.7220 C.3     1  UNL1        0.0939
     19 C         138.9668  138.7289  162.0477 C.3     1  UNL1        0.0410
     20 C         138.0060  139.8780  162.1295 C.3     1  UNL1        0.0722
     21 C         137.6173  140.6206  160.8855 C.3     1  UNL1        0.0410
     22 C         138.1893  140.2141  159.5597 C.3     1  UNL1        0.0939
     23 C         140.8659  137.8456  155.5008 C.ar    1  UNL1        0.1683
     24 C         139.4742  138.3999  155.5789 C.ar    1  UNL1        0.1299
     25 N         138.9023  138.8064  156.9047 N.ar    1  UNL1       -0.2253
     26 C         139.7220  138.6586  158.1522 C.ar    1  UNL1        0.1511
     27 C         141.1136  138.1043  158.0740 C.ar    1  UNL1        0.1338
     28 N         141.6856  137.6978  156.7482 N.ar    1  UNL1       -0.2290
     29 N         142.0098  137.0326  152.8493 N.1     1  UNL1       -0.1892
     30 C         141.4379  137.4391  154.1750 C.1     1  UNL1        0.1214
@<TRIPOS>BOND
     1    29    30    3
     2    30    23    1
     3    23    24   ar
     4    24    25   ar
     5    25    26   ar
     6    26    17    1
     7    17    18    1
     8    18    19    1
     9    19    20    1
    10    20     1    1
    11     1     3    1
    12     3     4    2
    13     4    12    1
    14    12    13   am
    15    12    14    2
    16     4     5    1
    17     5     6    2
    18     6     7    1
    19     7     8    2
    20     8     9    1
    21     9    10    2
    22    10    11    1
    23    20    21    1
    24    21    22    1
    25    26    27   ar
    26    27    28   ar
    27    28    23   ar
    28    22    17    1
    29    11     3    1
    30    11     7    1
    31     1     2    1
    32    13    15    1
    33    13    16    1
@<TRIPOS>MOLECULE
*****
 30 33 0 0 0
SMALL
GASTEIGER

@<TRIPOS>ATOM
      1 N         141.7729  139.6679  164.0036 N.pl3   1  UNL1       -0.3362
      2 H         142.6398  139.2158  164.1184 H       1  UNL1        0.1465
      3 C         140.6498  139.3902  164.9584 C.2     1  UNL1        0.0457
      4 C         139.5947  138.3849  164.6031 C.2     1  UNL1        0.1096
      5 C         138.4716  138.1071  165.5580 C.2     1  UNL1        0.2410
      6 N         138.4037  138.8347  166.8680 N.2     1  UNL1       -0.0338
      7 C         139.4588  139.8399  167.2232 C.2     1  UNL1        0.3606
      8 N         139.6539  140.7056  168.4326 N.2     1  UNL1       -0.0343
      9 C         140.8974  141.5183  168.2252 C.2     1  UNL1        0.2321
     10 C         141.4710  141.1550  166.8877 C.2     1  UNL1        0.0421
     11 C         140.5818  140.1177  166.2684 C.3     1  UNL1        0.1732
     12 C         139.6626  137.6574  163.2932 C.2     1  UNL1        0.2474
     13 N         138.4616  137.6153  162.3954 N.am    1  UNL1       -0.3252
     14 O         140.9315  136.9719  162.8809 O.2     1  UNL1       -0.2702
     15 H         137.6288  138.0652  162.6660 H       1  UNL1        0.1453
     16 H         138.5063  137.1378  161.5357 H       1  UNL1        0.1453
     17 N         141.1793  142.5680  160.6143 N.pl3   1  UNL1       -0.2919
     18 C         140.4453  142.7653  161.9076 C.3     1  UNL1        0.0939
     19 C         140.6431  141.7987  163.0373 C.3     1  UNL1        0.0410
     20 C         141.5750  140.6346  162.8738 C.3     1  UNL1        0.0722
     21 C         142.3090  140.4373  161.5806 C.3     1  UNL1        0.0410
     22 C         142.1111  141.4040  160.4509 C.3     1  UNL1        0.0939
     23 C         140.5856  145.4682  157.2252 C.ar    1  UNL1        0.1683
     24 C         141.7392  145.6425  158.1681 C.ar    1  UNL1        0.1299
     25 N         141.9370  144.6757  159.2978 N.ar    1  UNL1       -0.2253
     26 C         140.9814  143.5348  159.4845 C.ar    1  UNL1        0.1511
     27 C         139.8279  143.3604  158.5417 C.ar    1  UNL1        0.1338
     28 N         139.6300  144.3272  157.4119 N.ar    1  UNL1       -0.2290
     29 N         140.1899  147.4017  154.9658 N.1     1  UNL1       -0.1892
     30 C         140.3878  146.4349  156.0955 C.1     1  UNL1        0.1214
@<TRIPOS>BOND
     1    29    30    3
     2    30    23    1
     3    23    24   ar
     4    24    25   ar
     5    25    26   ar
     6    26    17    1
     7    17    18    1
     8    18    19    1
     9    19    20    1
    10    20     1    1
    11     1     3    1
    12     3     4    2
    13     4    12    1
    14    12    13   am
    15    12    14    2
    16     4     5    1
    17     5     6    2
    18     6     7    1
    19     7     8    2
    20     8     9    1
    21     9    10    2
    22    10    11    1
    23    20    21    1
    24    21    22    1
    25    26    27   ar
    26    27    28   ar
    27    28    23   ar
    28    22    17    1
    29    11     3    1
    30    11     7    1
    31     1     2    1
    32    13    15    1
    33    13    16    1
@<TRIPOS>MOLECULE
*****
 30 33 0 0 0
SMALL
GASTEIGER

@<TRIPOS>ATOM
      1 N         141.6112  141.1127  162.8972 N.pl3   1  UNL1       -0.3362
      2 H         142.0574  140.9477  163.7592 H       1  UNL1        0.1465
      3 C         140.1266  141.3219  162.8491 C.2     1  UNL1        0.0457
      4 C         139.2016  140.1414  162.8778 C.2     1  UNL1        0.1096
      5 C         137.7170  140.3505  162.8296 C.2     1  UNL1        0.2410
      6 N         137.1575  141.7402  162.7527 N.2     1  UNL1       -0.0338
      7 C         138.0825  142.9206  162.7240 C.2     1  UNL1        0.3606
      8 N         137.8245  144.3965  162.6511 N.2     1  UNL1       -0.0343
      9 C         139.1495  145.0994  162.6543 C.2     1  UNL1        0.2321
     10 C         140.2265  144.0581  162.7291 C.2     1  UNL1        0.0421
     11 C         139.5671  142.7114  162.7722 C.3     1  UNL1        0.1732
     12 C         139.7611  138.7518  162.9546 C.2     1  UNL1        0.2474
     13 N         139.1140  137.6390  162.1846 N.am    1  UNL1       -0.3252
     14 O         140.9678  138.4749  163.8016 O.2     1  UNL1       -0.2702
     15 H         138.3221  137.8207  161.6287 H       1  UNL1        0.1453
     16 H         139.4813  136.7270  162.2350 H       1  UNL1        0.1453
     17 N         144.0256  141.2396  159.1019 N.pl3   1  UNL1       -0.2919
     18 C         143.9881  142.4350  160.0073 C.3     1  UNL1        0.0939
     19 C         143.1833  142.3927  161.2724 C.3     1  UNL1        0.0410
     20 C         142.4160  141.1550  161.6321 C.3     1  UNL1        0.0722
     21 C         142.4535  139.9596  160.7268 C.3     1  UNL1        0.0410
     22 C         143.2584  140.0020  159.4617 C.3     1  UNL1        0.0939
     23 C         146.4401  141.3665  155.3067 C.ar    1  UNL1        0.1683
     24 C         145.5527  140.1913  155.5921 C.ar    1  UNL1        0.1299
     25 N         144.7479  140.1490  156.8572 N.ar    1  UNL1       -0.2253
     26 C         144.8305  141.2819  157.8368 C.ar    1  UNL1        0.1511
     27 C         145.7178  142.4571  157.5514 C.ar    1  UNL1        0.1338
     28 N         146.5227  142.4994  156.2863 N.ar    1  UNL1       -0.2290
     29 N         148.0497  141.4511  152.7765 N.1     1  UNL1       -0.1892
     30 C         147.2449  141.4088  154.0416 C.1     1  UNL1        0.1214
@<TRIPOS>BOND
     1    29    30    3
     2    30    23    1
     3    23    24   ar
     4    24    25   ar
     5    25    26   ar
     6    26    17    1
     7    17    18    1
     8    18    19    1
     9    19    20    1
    10    20     1    1
    11     1     3    1
    12     3     4    2
    13     4    12    1
    14    12    13   am
    15    12    14    2
    16     4     5    1
    17     5     6    2
    18     6     7    1
    19     7     8    2
    20     8     9    1
    21     9    10    2
    22    10    11    1
    23    20    21    1
    24    21    22    1
    25    26    27   ar
    26    27    28   ar
    27    28    23   ar
    28    22    17    1
    29    11     3    1
    30    11     7    1
    31     1     2    1
    32    13    15    1
    33    13    16    1
@<TRIPOS>MOLECULE
*****
 30 33 0 0 0
SMALL
GASTEIGER

@<TRIPOS>ATOM
      1 N         142.3465  140.6974  166.5559 N.pl3   1  UNL1       -0.3362
      2 H         143.1637  140.1535  166.6308 H       1  UNL1        0.1465
      3 C         141.4239  140.8307  167.7312 C.2     1  UNL1        0.0457
      4 C         140.0791  140.1666  167.7080 C.2     1  UNL1        0.1096
      5 C         139.1566  140.2999  168.8833 C.2     1  UNL1        0.2410
      6 N         139.5789  141.0973  170.0816 N.2     1  UNL1       -0.0338
      7 C         140.9237  141.7613  170.1046 C.2     1  UNL1        0.3606
      8 N         141.6089  142.6049  171.1385 N.2     1  UNL1       -0.0343
      9 C         142.9549  142.9930  170.6022 C.2     1  UNL1        0.2321
     10 C         143.1016  142.3893  169.2369 C.2     1  UNL1        0.0421
     11 C         141.8462  141.6280  168.9294 C.3     1  UNL1        0.1732
     12 C         139.6569  139.3693  166.5098 C.2     1  UNL1        0.2474
     13 N         138.2898  139.5633  165.9235 N.am    1  UNL1       -0.3252
     14 O         140.6016  138.3779  165.8977 O.2     1  UNL1       -0.2702
     15 H         137.6698  140.2140  166.3252 H       1  UNL1        0.1453
     16 H         138.0127  139.0400  165.1370 H       1  UNL1        0.1453
     17 N         141.3787  142.7834  162.6878 N.pl3   1  UNL1       -0.2919
     18 C         141.9608  141.4009  162.6693 C.3     1  UNL1        0.0939
     19 C         142.2834  140.7056  163.9586 C.3     1  UNL1        0.0410
     20 C         142.0239  141.3927  165.2665 C.3     1  UNL1        0.0722
     21 C         141.4419  142.7750  165.2851 C.3     1  UNL1        0.0410
     22 C         141.1193  143.4704  163.9957 C.3     1  UNL1        0.0939
     23 C         140.4110  144.8692  158.8197 C.ar    1  UNL1        0.1683
     24 C         139.6397  143.6488  159.2271 C.ar    1  UNL1        0.1299
     25 N         139.9623  142.9536  160.5165 N.ar    1  UNL1       -0.2253
     26 C         141.0561  143.4787  161.3984 C.ar    1  UNL1        0.1511
     27 C         141.8274  144.6990  160.9910 C.ar    1  UNL1        0.1338
     28 N         141.5048  145.3943  159.7016 N.ar    1  UNL1       -0.2290
     29 N         139.7657  146.2596  156.2409 N.1     1  UNL1       -0.1892
     30 C         140.0884  145.5644  157.5303 C.1     1  UNL1        0.1214
@<TRIPOS>BOND
     1    29    30    3
     2    30    23    1
     3    23    24   ar
     4    24    25   ar
     5    25    26   ar
     6    26    17    1
     7    17    18    1
     8    18    19    1
     9    19    20    1
    10    20     1    1
    11     1     3    1
    12     3     4    2
    13     4    12    1
    14    12    13   am
    15    12    14    2
    16     4     5    1
    17     5     6    2
    18     6     7    1
    19     7     8    2
    20     8     9    1
    21     9    10    2
    22    10    11    1
    23    20    21    1
    24    21    22    1
    25    26    27   ar
    26    27    28   ar
    27    28    23   ar
    28    22    17    1
    29    11     3    1
    30    11     7    1
    31     1     2    1
    32    13    15    1
    33    13    16    1
@<TRIPOS>MOLECULE
*****
 30 33 0 0 0
SMALL
GASTEIGER

@<TRIPOS>ATOM
      1 N         138.2332  141.9430  163.1762 N.pl3   1  UNL1       -0.3362
      2 H         137.4099  142.4624  163.0286 H       1  UNL1        0.1465
      3 C         138.9230  141.9929  164.5073 C.2     1  UNL1        0.0457
      4 C         139.7117  143.2074  164.8982 C.2     1  UNL1        0.1096
      5 C         140.4015  143.2572  166.2293 C.2     1  UNL1        0.2410
      6 N         140.3026  142.0926  167.1694 N.2     1  UNL1       -0.0338
      7 C         139.5138  140.8781  166.7784 C.2     1  UNL1        0.3606
      8 N         139.2395  139.5871  167.4913 N.2     1  UNL1       -0.0343
      9 C         138.3802  138.7394  166.6008 C.2     1  UNL1        0.2321
     10 C         138.1234  139.5064  165.3376 C.2     1  UNL1        0.0421
     11 C         138.8240  140.8283  165.4474 C.3     1  UNL1        0.1732
     12 C         139.8107  144.3720  163.9581 C.2     1  UNL1        0.2474
     13 N         141.0832  145.1619  163.8739 N.am    1  UNL1       -0.3252
     14 O         138.6373  144.7468  163.1022 O.2     1  UNL1       -0.2702
     15 H         141.8533  144.9159  164.4356 H       1  UNL1        0.1453
     16 H         141.1481  145.9263  163.2568 H       1  UNL1        0.1453
     17 N         139.9268  139.4196  159.8575 N.pl3   1  UNL1       -0.2919
     18 C         140.5897  140.7128  160.2295 C.3     1  UNL1        0.0939
     19 C         140.0252  141.5539  161.3357 C.3     1  UNL1        0.0410
     20 C         138.7977  141.1019  162.0699 C.3     1  UNL1        0.0722
     21 C         138.1348  139.8088  161.6979 C.3     1  UNL1        0.0410
     22 C         138.6994  138.9676  160.5916 C.3     1  UNL1        0.0939
     23 C         141.6205  136.8964  156.5387 C.ar    1  UNL1        0.1683
     24 C         140.1645  137.2572  156.5382 C.ar    1  UNL1        0.1299
     25 N         139.6000  138.0983  157.6445 N.ar    1  UNL1       -0.2253
     26 C         140.4914  138.5785  158.7512 C.ar    1  UNL1        0.1511
     27 C         141.9473  138.2176  158.7517 C.ar    1  UNL1        0.1338
     28 N         142.5119  137.3765  157.6454 N.ar    1  UNL1       -0.2290
     29 N         142.7495  135.2142  154.3261 N.1     1  UNL1       -0.1892
     30 C         142.1850  136.0553  155.4324 C.1     1  UNL1        0.1214
@<TRIPOS>BOND
     1    29    30    3
     2    30    23    1
     3    23    24   ar
     4    24    25   ar
     5    25    26   ar
     6    26    17    1
     7    17    18    1
     8    18    19    1
     9    19    20    1
    10    20     1    1
    11     1     3    1
    12     3     4    2
    13     4    12    1
    14    12    13   am
    15    12    14    2
    16     4     5    1
    17     5     6    2
    18     6     7    1
    19     7     8    2
    20     8     9    1
    21     9    10    2
    22    10    11    1
    23    20    21    1
    24    21    22    1
    25    26    27   ar
    26    27    28   ar
    27    28    23   ar
    28    22    17    1
    29    11     3    1
    30    11     7    1
    31     1     2    1
    32    13    15    1
    33    13    16    1
