@<TRIPOS>MOLECULE
*****
 30 32 0 0 0
SMALL
GASTEIGER

@<TRIPOS>ATOM
      1 C         139.9500  145.0588  163.1805 C.3     1  UNL1        0.0224
      2 C         141.1933  144.6508  163.9136 C.3     1  UNL1        0.0191
      3 C         141.1340  143.5601  164.9416 C.3     1  UNL1        0.0724
      4 N         139.8312  142.8774  165.2364 N.3     1  UNL1       -0.2690
      5 C         138.5879  143.2854  164.5032 C.3     1  UNL1        0.0724
      6 C         138.6473  144.3761  163.4752 C.3     1  UNL1        0.0191
      7 C         140.0094  146.1496  162.1524 C.3     1  UNL1        0.0897
      8 O         141.9672  144.8776  160.2686 O.2     1  UNL1       -0.2701
      9 C         140.5892  145.2304  159.7926 C.2     1  UNL1        0.2459
     10 N         139.6102  145.8664  160.7345 N.am    1  UNL1       -0.3009
     11 H         138.7058  146.0979  160.4221 H       1  UNL1        0.1497
     12 C         140.1901  144.9472  158.3747 C.ar    1  UNL1        0.0550
     13 C         140.2311  146.0427  157.3509 C.ar    1  UNL1        0.0160
     14 C         139.8320  145.7595  155.9330 C.ar    1  UNL1        0.0587
     15 CL        139.8731  146.8550  154.9092 Cl      1  UNL1       -0.0822
     16 C         139.3919  144.3807  155.5388 C.ar    1  UNL1        0.0228
     17 C         139.3508  143.2852  156.5626 C.ar    1  UNL1        0.0587
     18 CL        138.9107  141.9065  156.1685 Cl      1  UNL1       -0.0822
     19 C         139.7499  143.5685  157.9806 C.ar    1  UNL1        0.0160
     20 C         139.7719  141.7866  166.2644 C.3     1  UNL1        0.0991
     21 C         139.4977  140.3733  165.8433 C.ar    1  UNL1       -0.0062
     22 C         138.4693  139.5598  166.5718 C.ar    1  UNL1       -0.0029
     23 C         138.1951  138.1464  166.1507 C.ar    1  UNL1       -0.0003
     24 C         138.9494  137.5466  165.0012 C.ar    1  UNL1        0.0038
     25 C         139.9778  138.3601  164.2728 C.ar    1  UNL1        0.0712
     26 C         140.2520  139.7734  164.6938 C.ar    1  UNL1        0.0009
     27 C         140.7320  137.7603  163.1233 C.3     1  UNL1        0.4186
     28 F         141.4863  137.1604  161.9738 F       1  UNL1       -0.1659
     29 F         141.3202  136.7335  164.0450 F       1  UNL1       -0.1659
     30 F         140.1438  138.7871  162.2016 F       1  UNL1       -0.1659
@<TRIPOS>BOND
     1     8     9    2
     2     9    10   am
     3    10     7    1
     4     7     1    1
     5     1     2    1
     6     2     3    1
     7     3     4    1
     8     4    20    1
     9    20    21    1
    10    21    22   ar
    11    22    23   ar
    12    23    24   ar
    13    24    25   ar
    14    25    27    1
    15    27    28    1
    16    27    29    1
    17    27    30    1
    18    25    26   ar
    19     4     5    1
    20     5     6    1
    21     9    12    1
    22    12    13   ar
    23    13    14   ar
    24    14    15    1
    25    14    16   ar
    26    16    17   ar
    27    17    18    1
    28    17    19   ar
    29     6     1    1
    30    19    12   ar
    31    26    21   ar
    32    10    11    1
@<TRIPOS>MOLECULE
*****
 30 32 0 0 0
SMALL
GASTEIGER

@<TRIPOS>ATOM
      1 C         140.1310  144.8754  163.2057 C.3     1  UNL1        0.0224
      2 C         138.8210  144.6991  163.9148 C.3     1  UNL1        0.0191
      3 C         138.6476  143.5847  164.9037 C.3     1  UNL1        0.0724
      4 N         139.7841  142.6465  165.1835 N.3     1  UNL1       -0.2690
      5 C         141.0941  142.8229  164.4744 C.3     1  UNL1        0.0724
      6 C         141.2675  143.9373  163.4855 C.3     1  UNL1        0.0191
      7 C         140.3045  145.9899  162.2168 C.3     1  UNL1        0.0897
      8 O         142.0776  144.8419  160.0865 O.2     1  UNL1       -0.2701
      9 C         140.6774  145.2622  159.7507 C.2     1  UNL1        0.2459
     10 N         139.7909  145.8363  160.8159 N.am    1  UNL1       -0.3009
     11 H         138.8719  146.1122  160.5956 H       1  UNL1        0.1497
     12 C         140.1638  145.1086  158.3499 C.ar    1  UNL1        0.0550
     13 C         139.6822  143.7715  157.8700 C.ar    1  UNL1        0.0160
     14 C         139.1686  143.6179  156.4691 C.ar    1  UNL1        0.0587
     15 CL        138.6870  142.2808  155.9893 Cl      1  UNL1       -0.0822
     16 C         139.1365  144.8014  155.5480 C.ar    1  UNL1        0.0228
     17 C         139.6181  146.1384  156.0278 C.ar    1  UNL1        0.0587
     18 CL        139.5861  147.3219  155.1068 Cl      1  UNL1       -0.0822
     19 C         140.1318  146.2920  157.4288 C.ar    1  UNL1        0.0160
     20 C         139.6106  141.5320  166.1724 C.3     1  UNL1        0.0991
     21 C         140.7122  141.2072  167.1372 C.ar    1  UNL1       -0.0062
     22 C         141.3274  139.8392  167.1402 C.ar    1  UNL1       -0.0029
     23 C         142.4291  139.5144  168.1051 C.ar    1  UNL1       -0.0003
     24 C         142.9154  140.5576  169.0669 C.ar    1  UNL1        0.0038
     25 C         142.3002  141.9256  169.0640 C.ar    1  UNL1        0.0712
     26 C         141.1986  142.2504  168.0991 C.ar    1  UNL1        0.0009
     27 C         142.7865  142.9688  170.0258 C.3     1  UNL1        0.4186
     28 F         143.2729  144.0120  170.9877 F       1  UNL1       -0.1659
     29 F         144.1634  142.3761  169.9724 F       1  UNL1       -0.1659
     30 F         141.4096  143.5614  170.0793 F       1  UNL1       -0.1659
@<TRIPOS>BOND
     1     8     9    2
     2     9    10   am
     3    10     7    1
     4     7     1    1
     5     1     2    1
     6     2     3    1
     7     3     4    1
     8     4    20    1
     9    20    21    1
    10    21    22   ar
    11    22    23   ar
    12    23    24   ar
    13    24    25   ar
    14    25    27    1
    15    27    28    1
    16    27    29    1
    17    27    30    1
    18    25    26   ar
    19     4     5    1
    20     5     6    1
    21     9    12    1
    22    12    13   ar
    23    13    14   ar
    24    14    15    1
    25    14    16   ar
    26    16    17   ar
    27    17    18    1
    28    17    19   ar
    29     6     1    1
    30    19    12   ar
    31    26    21   ar
    32    10    11    1
@<TRIPOS>MOLECULE
*****
 30 32 0 0 0
SMALL
GASTEIGER

@<TRIPOS>ATOM
      1 C         139.8819  145.1182  163.0997 C.3     1  UNL1        0.0224
      2 C         138.5767  144.4123  163.3188 C.3     1  UNL1        0.0191
      3 C         138.4829  143.3049  164.3263 C.3     1  UNL1        0.0724
      4 N         139.6943  142.9035  165.1146 N.3     1  UNL1       -0.2690
      5 C         140.9995  143.6094  164.8954 C.3     1  UNL1        0.0724
      6 C         141.0933  144.7167  163.8880 C.3     1  UNL1        0.0191
      7 C         139.9758  146.2255  162.0922 C.3     1  UNL1        0.0897
      8 O         141.9303  144.9092  160.2355 O.2     1  UNL1       -0.2701
      9 C         140.5759  145.3146  159.7342 C.2     1  UNL1        0.2459
     10 N         139.5986  145.9728  160.6626 N.am    1  UNL1       -0.3009
     11 H         138.7097  146.2389  160.3336 H       1  UNL1        0.1497
     12 C         140.1987  145.0619  158.3046 C.ar    1  UNL1        0.0550
     13 C         140.0415  143.6553  157.8078 C.ar    1  UNL1        0.0160
     14 C         139.6643  143.4026  156.3782 C.ar    1  UNL1        0.0587
     15 CL        139.5071  141.9960  155.8814 Cl      1  UNL1       -0.0822
     16 C         139.4443  144.5565  155.4453 C.ar    1  UNL1        0.0228
     17 C         139.6016  145.9631  155.9421 C.ar    1  UNL1        0.0587
     18 CL        139.3817  147.1169  155.0092 Cl      1  UNL1       -0.0822
     19 C         139.9788  146.2158  157.3718 C.ar    1  UNL1        0.0160
     20 C         139.6004  141.7961  166.1220 C.3     1  UNL1        0.0991
     21 C         139.5131  140.3706  165.6637 C.ar    1  UNL1       -0.0062
     22 C         138.4851  139.4535  166.2571 C.ar    1  UNL1       -0.0029
     23 C         138.3979  138.0279  165.7987 C.ar    1  UNL1       -0.0003
     24 C         139.3386  137.5194  164.7469 C.ar    1  UNL1        0.0038
     25 C         140.3666  138.4365  164.1534 C.ar    1  UNL1        0.0712
     26 C         140.4539  139.8620  164.6118 C.ar    1  UNL1        0.0009
     27 C         141.3074  137.9280  163.1016 C.3     1  UNL1        0.4186
     28 F         142.2482  137.4195  162.0496 F       1  UNL1       -0.1659
     29 F         141.5132  139.3294  162.6081 F       1  UNL1       -0.1659
     30 F         141.1016  136.5265  163.5950 F       1  UNL1       -0.1659
@<TRIPOS>BOND
     1     8     9    2
     2     9    10   am
     3    10     7    1
     4     7     1    1
     5     1     2    1
     6     2     3    1
     7     3     4    1
     8     4    20    1
     9    20    21    1
    10    21    22   ar
    11    22    23   ar
    12    23    24   ar
    13    24    25   ar
    14    25    27    1
    15    27    28    1
    16    27    29    1
    17    27    30    1
    18    25    26   ar
    19     4     5    1
    20     5     6    1
    21     9    12    1
    22    12    13   ar
    23    13    14   ar
    24    14    15    1
    25    14    16   ar
    26    16    17   ar
    27    17    18    1
    28    17    19   ar
    29     6     1    1
    30    19    12   ar
    31    26    21   ar
    32    10    11    1
@<TRIPOS>MOLECULE
*****
 30 32 0 0 0
SMALL
GASTEIGER

@<TRIPOS>ATOM
      1 C         139.6243  143.5017  159.6492 C.3     1  UNL1        0.0224
      2 C         138.7431  142.3080  159.8693 C.3     1  UNL1        0.0191
      3 C         138.1121  142.0788  161.2107 C.3     1  UNL1        0.0724
      4 N         138.3623  143.0434  162.3318 N.3     1  UNL1       -0.2690
      5 C         139.2435  144.2371  162.1117 C.3     1  UNL1        0.0724
      6 C         139.8745  144.4662  160.7704 C.3     1  UNL1        0.0191
      7 C         140.2554  143.7309  158.3078 C.3     1  UNL1        0.0897
      8 O         139.5212  143.9704  155.4089 O.2     1  UNL1       -0.2701
      9 C         139.8099  145.2028  156.2137 C.2     1  UNL1        0.2459
     10 N         140.1771  145.0830  157.6632 N.am    1  UNL1       -0.3009
     11 H         140.3666  145.8919  158.1915 H       1  UNL1        0.1497
     12 C         139.7315  146.5550  155.5692 C.ar    1  UNL1        0.0550
     13 C         140.4209  146.8030  154.2603 C.ar    1  UNL1        0.0160
     14 C         140.3425  148.1552  153.6157 C.ar    1  UNL1        0.0587
     15 CL        141.0318  148.4032  152.3068 Cl      1  UNL1       -0.0822
     16 C         139.5748  149.2594  154.2801 C.ar    1  UNL1        0.0228
     17 C         138.8854  149.0114  155.5891 C.ar    1  UNL1        0.0587
     18 CL        138.1177  150.1155  156.2535 Cl      1  UNL1       -0.0822
     19 C         138.9638  147.6591  156.2336 C.ar    1  UNL1        0.0160
     20 C         137.7312  142.8142  163.6732 C.3     1  UNL1        0.0991
     21 C         138.4268  141.9631  164.6938 C.ar    1  UNL1       -0.0062
     22 C         139.5663  142.5270  165.4897 C.ar    1  UNL1       -0.0029
     23 C         140.2620  141.6758  166.5103 C.ar    1  UNL1       -0.0003
     24 C         139.8182  140.2608  166.7350 C.ar    1  UNL1        0.0038
     25 C         138.6787  139.6968  165.9391 C.ar    1  UNL1        0.0712
     26 C         137.9830  140.5479  164.9185 C.ar    1  UNL1        0.0009
     27 C         138.2348  138.2817  166.1638 C.3     1  UNL1        0.4186
     28 F         137.7909  136.8666  166.3885 F       1  UNL1       -0.1659
     29 F         137.4373  138.7211  167.3557 F       1  UNL1       -0.1659
     30 F         139.0323  137.8423  164.9718 F       1  UNL1       -0.1659
@<TRIPOS>BOND
     1     8     9    2
     2     9    10   am
     3    10     7    1
     4     7     1    1
     5     1     2    1
     6     2     3    1
     7     3     4    1
     8     4    20    1
     9    20    21    1
    10    21    22   ar
    11    22    23   ar
    12    23    24   ar
    13    24    25   ar
    14    25    27    1
    15    27    28    1
    16    27    29    1
    17    27    30    1
    18    25    26   ar
    19     4     5    1
    20     5     6    1
    21     9    12    1
    22    12    13   ar
    23    13    14   ar
    24    14    15    1
    25    14    16   ar
    26    16    17   ar
    27    17    18    1
    28    17    19   ar
    29     6     1    1
    30    19    12   ar
    31    26    21   ar
    32    10    11    1
@<TRIPOS>MOLECULE
*****
 30 32 0 0 0
SMALL
GASTEIGER

@<TRIPOS>ATOM
      1 C         141.1749  144.5581  164.0613 C.3     1  UNL1        0.0224
      2 C         142.1966  143.5859  164.5719 C.3     1  UNL1        0.0191
      3 C         141.7984  142.5286  165.5586 C.3     1  UNL1        0.0724
      4 N         140.3785  142.4436  166.0347 N.3     1  UNL1       -0.2690
      5 C         139.3568  143.4158  165.5241 C.3     1  UNL1        0.0724
      6 C         139.7550  144.4731  164.5374 C.3     1  UNL1        0.0191
      7 C         141.5730  145.6154  163.0745 C.3     1  UNL1        0.0897
      8 O         139.5158  146.0823  160.9414 O.2     1  UNL1       -0.2701
      9 C         140.8403  145.4744  160.5859 C.2     1  UNL1        0.2459
     10 N         141.8689  145.2410  161.6525 N.am    1  UNL1       -0.3009
     11 H         142.7381  144.8420  161.4192 H       1  UNL1        0.1497
     12 C         141.1361  145.0999  159.1639 C.ar    1  UNL1        0.0550
     13 C         142.2154  144.1037  158.8596 C.ar    1  UNL1        0.0160
     14 C         142.5113  143.7292  157.4376 C.ar    1  UNL1        0.0587
     15 CL        143.5906  142.7329  157.1334 Cl      1  UNL1       -0.0822
     16 C         141.7278  144.3510  156.3197 C.ar    1  UNL1        0.0228
     17 C         140.6485  145.3473  156.6239 C.ar    1  UNL1        0.0587
     18 CL        139.8650  145.9691  155.5062 Cl      1  UNL1       -0.0822
     19 C         140.3527  145.7217  158.0461 C.ar    1  UNL1        0.0160
     20 C         139.9804  141.3862  167.0214 C.3     1  UNL1        0.0991
     21 C         139.4982  140.0512  166.5365 C.ar    1  UNL1       -0.0062
     22 C         138.3387  139.3817  167.2127 C.ar    1  UNL1       -0.0029
     23 C         137.8565  138.0466  166.7277 C.ar    1  UNL1       -0.0003
     24 C         138.5338  137.3811  165.5665 C.ar    1  UNL1        0.0038
     25 C         139.6933  138.0507  164.8903 C.ar    1  UNL1        0.0712
     26 C         140.1755  139.3857  165.3752 C.ar    1  UNL1        0.0009
     27 C         140.3706  137.3853  163.7291 C.3     1  UNL1        0.4186
     28 F         141.0479  136.7198  162.5678 F       1  UNL1       -0.1659
     29 F         141.3730  136.7752  164.6634 F       1  UNL1       -0.1659
     30 F         139.3681  137.9953  162.7948 F       1  UNL1       -0.1659
@<TRIPOS>BOND
     1     8     9    2
     2     9    10   am
     3    10     7    1
     4     7     1    1
     5     1     2    1
     6     2     3    1
     7     3     4    1
     8     4    20    1
     9    20    21    1
    10    21    22   ar
    11    22    23   ar
    12    23    24   ar
    13    24    25   ar
    14    25    27    1
    15    27    28    1
    16    27    29    1
    17    27    30    1
    18    25    26   ar
    19     4     5    1
    20     5     6    1
    21     9    12    1
    22    12    13   ar
    23    13    14   ar
    24    14    15    1
    25    14    16   ar
    26    16    17   ar
    27    17    18    1
    28    17    19   ar
    29     6     1    1
    30    19    12   ar
    31    26    21   ar
    32    10    11    1
@<TRIPOS>MOLECULE
*****
 30 32 0 0 0
SMALL
GASTEIGER

@<TRIPOS>ATOM
      1 C         139.7783  143.4810  159.5205 C.3     1  UNL1        0.0224
      2 C         138.7983  142.3661  159.7355 C.3     1  UNL1        0.0191
      3 C         138.1492  142.1861  161.0757 C.3     1  UNL1        0.0724
      4 N         138.4801  143.1211  162.2010 N.3     1  UNL1       -0.2690
      5 C         139.4602  144.2361  161.9860 C.3     1  UNL1        0.0724
      6 C         140.1093  144.4160  160.6458 C.3     1  UNL1        0.0191
      7 C         140.4275  143.6611  158.1803 C.3     1  UNL1        0.0897
      8 O         138.7268  144.1529  155.7583 O.2     1  UNL1       -0.2701
      9 C         139.5798  145.2554  156.3122 C.2     1  UNL1        0.2459
     10 N         140.4302  145.0095  157.5232 N.am    1  UNL1       -0.3009
     11 H         140.9900  145.7331  157.8868 H       1  UNL1        0.1497
     12 C         139.5824  146.6038  155.6552 C.ar    1  UNL1        0.0550
     13 C         138.8636  147.7528  156.2980 C.ar    1  UNL1        0.0160
     14 C         138.8662  149.1012  155.6410 C.ar    1  UNL1        0.0587
     15 CL        138.1474  150.2501  156.2838 Cl      1  UNL1       -0.0822
     16 C         139.5878  149.3007  154.3411 C.ar    1  UNL1        0.0228
     17 C         140.3067  148.1518  153.6983 C.ar    1  UNL1        0.0587
     18 CL        141.0282  148.3513  152.3985 Cl      1  UNL1       -0.0822
     19 C         140.3040  146.8033  154.3554 C.ar    1  UNL1        0.0160
     20 C         137.8310  142.9411  163.5412 C.3     1  UNL1        0.0991
     21 C         138.5013  142.1084  164.5935 C.ar    1  UNL1       -0.0062
     22 C         139.5690  142.7099  165.4584 C.ar    1  UNL1       -0.0029
     23 C         140.2393  141.8770  166.5107 C.ar    1  UNL1       -0.0003
     24 C         139.8419  140.4429  166.6980 C.ar    1  UNL1        0.0038
     25 C         138.7742  139.8414  165.8330 C.ar    1  UNL1        0.0712
     26 C         138.1039  140.6741  164.7807 C.ar    1  UNL1        0.0009
     27 C         138.3767  138.4072  166.0202 C.3     1  UNL1        0.4186
     28 F         137.9793  136.9729  166.2074 F       1  UNL1       -0.1659
     29 F         139.5078  137.9780  165.1334 F       1  UNL1       -0.1659
     30 F         137.2457  138.8364  166.9071 F       1  UNL1       -0.1659
@<TRIPOS>BOND
     1     8     9    2
     2     9    10   am
     3    10     7    1
     4     7     1    1
     5     1     2    1
     6     2     3    1
     7     3     4    1
     8     4    20    1
     9    20    21    1
    10    21    22   ar
    11    22    23   ar
    12    23    24   ar
    13    24    25   ar
    14    25    27    1
    15    27    28    1
    16    27    29    1
    17    27    30    1
    18    25    26   ar
    19     4     5    1
    20     5     6    1
    21     9    12    1
    22    12    13   ar
    23    13    14   ar
    24    14    15    1
    25    14    16   ar
    26    16    17   ar
    27    17    18    1
    28    17    19   ar
    29     6     1    1
    30    19    12   ar
    31    26    21   ar
    32    10    11    1
@<TRIPOS>MOLECULE
*****
 30 32 0 0 0
SMALL
GASTEIGER

@<TRIPOS>ATOM
      1 C         140.2364  144.4285  163.1506 C.3     1  UNL1        0.0224
      2 C         139.2517  144.2980  164.2745 C.3     1  UNL1        0.0191
      3 C         139.2819  143.0887  165.1614 C.3     1  UNL1        0.0724
      4 N         140.2970  142.0100  164.9245 N.3     1  UNL1       -0.2690
      5 C         141.2817  142.1406  163.8006 C.3     1  UNL1        0.0724
      6 C         141.2514  143.3498  162.9136 C.3     1  UNL1        0.0191
      7 C         140.2062  145.6378  162.2635 C.3     1  UNL1        0.0897
      8 O         142.0996  144.9854  160.0298 O.2     1  UNL1       -0.2701
      9 C         140.6432  145.1978  159.7405 C.2     1  UNL1        0.2459
     10 N         139.6964  145.5240  160.8574 N.am    1  UNL1       -0.3009
     11 H         138.7405  145.6634  160.6676 H       1  UNL1        0.1497
     12 C         140.1334  145.0840  158.3344 C.ar    1  UNL1        0.0550
     13 C         140.1575  146.2795  157.4289 C.ar    1  UNL1        0.0160
     14 C         139.6478  146.1657  156.0228 C.ar    1  UNL1        0.0587
     15 CL        139.6719  147.3613  155.1172 Cl      1  UNL1       -0.0822
     16 C         139.1139  144.8563  155.5222 C.ar    1  UNL1        0.0228
     17 C         139.0899  143.6607  156.4278 C.ar    1  UNL1        0.0587
     18 CL        138.5561  142.3514  155.9272 Cl      1  UNL1       -0.0822
     19 C         139.5996  143.7746  157.8339 C.ar    1  UNL1        0.0160
     20 C         140.3272  140.8007  165.8115 C.3     1  UNL1        0.0991
     21 C         140.2955  140.9631  167.3023 C.ar    1  UNL1       -0.0062
     22 C         139.3020  140.1920  168.1198 C.ar    1  UNL1       -0.0029
     23 C         139.2703  140.3544  169.6107 C.ar    1  UNL1       -0.0003
     24 C         140.2320  141.2880  170.2840 C.ar    1  UNL1        0.0038
     25 C         141.2255  142.0592  169.4665 C.ar    1  UNL1        0.0712
     26 C         141.2573  141.8968  167.9757 C.ar    1  UNL1        0.0009
     27 C         142.1873  142.9928  170.1399 C.3     1  UNL1        0.4186
     28 F         143.1491  143.9264  170.8132 F       1  UNL1       -0.1659
     29 F         141.1937  144.1090  170.0114 F       1  UNL1       -0.1659
     30 F         143.1809  141.8765  170.2683 F       1  UNL1       -0.1659
@<TRIPOS>BOND
     1     8     9    2
     2     9    10   am
     3    10     7    1
     4     7     1    1
     5     1     2    1
     6     2     3    1
     7     3     4    1
     8     4    20    1
     9    20    21    1
    10    21    22   ar
    11    22    23   ar
    12    23    24   ar
    13    24    25   ar
    14    25    27    1
    15    27    28    1
    16    27    29    1
    17    27    30    1
    18    25    26   ar
    19     4     5    1
    20     5     6    1
    21     9    12    1
    22    12    13   ar
    23    13    14   ar
    24    14    15    1
    25    14    16   ar
    26    16    17   ar
    27    17    18    1
    28    17    19   ar
    29     6     1    1
    30    19    12   ar
    31    26    21   ar
    32    10    11    1
@<TRIPOS>MOLECULE
*****
 30 32 0 0 0
SMALL
GASTEIGER

@<TRIPOS>ATOM
      1 C         141.3869  138.4650  159.3007 C.3     1  UNL1        0.0224
      2 C         140.0102  139.0101  159.0608 C.3     1  UNL1        0.0191
      3 C         139.0351  139.1106  160.1960 C.3     1  UNL1        0.0724
      4 N         139.4366  138.6661  161.5712 N.3     1  UNL1       -0.2690
      5 C         140.8132  138.1211  161.8112 C.3     1  UNL1        0.0724
      6 C         141.7884  138.0205  160.6759 C.3     1  UNL1        0.0191
      7 C         142.3622  138.3644  158.1654 C.3     1  UNL1        0.0897
      8 O         140.9769  136.5379  156.2303 O.2     1  UNL1       -0.2701
      9 C         142.2800  136.1262  156.8487 C.2     1  UNL1        0.2459
     10 N         142.9727  137.0396  157.8163 N.am    1  UNL1       -0.3009
     11 H         143.8280  136.7694  158.2222 H       1  UNL1        0.1497
     12 C         142.8905  134.8013  156.4996 C.ar    1  UNL1        0.0550
     13 C         142.5564  134.1423  155.1942 C.ar    1  UNL1        0.0160
     14 C         143.1669  132.8174  154.8450 C.ar    1  UNL1        0.0587
     15 CL        142.8327  132.1583  153.5397 Cl      1  UNL1       -0.0822
     16 C         144.1115  132.1515  155.8013 C.ar    1  UNL1        0.0228
     17 C         144.4457  132.8106  157.1066 C.ar    1  UNL1        0.0587
     18 CL        145.3903  132.1448  158.0628 Cl      1  UNL1       -0.0822
     19 C         143.8351  134.1356  157.4558 C.ar    1  UNL1        0.0160
     20 C         138.4613  138.7667  162.7065 C.3     1  UNL1        0.0991
     21 C         138.8186  139.5496  163.9351 C.ar    1  UNL1       -0.0062
     22 C         139.2259  138.8336  165.1886 C.ar    1  UNL1       -0.0029
     23 C         139.5832  139.6166  166.4172 C.ar    1  UNL1       -0.0003
     24 C         139.5332  141.1155  166.3922 C.ar    1  UNL1        0.0038
     25 C         139.1258  141.8316  165.1386 C.ar    1  UNL1        0.0712
     26 C         138.7685  141.0486  163.9101 C.ar    1  UNL1        0.0009
     27 C         139.0758  143.3305  165.1136 C.3     1  UNL1        0.4186
     28 F         139.0257  144.8295  165.0885 F       1  UNL1       -0.1659
     29 F         137.6224  143.2758  164.7467 F       1  UNL1       -0.1659
     30 F         140.5292  143.3851  165.4805 F       1  UNL1       -0.1659
@<TRIPOS>BOND
     1     8     9    2
     2     9    10   am
     3    10     7    1
     4     7     1    1
     5     1     2    1
     6     2     3    1
     7     3     4    1
     8     4    20    1
     9    20    21    1
    10    21    22   ar
    11    22    23   ar
    12    23    24   ar
    13    24    25   ar
    14    25    27    1
    15    27    28    1
    16    27    29    1
    17    27    30    1
    18    25    26   ar
    19     4     5    1
    20     5     6    1
    21     9    12    1
    22    12    13   ar
    23    13    14   ar
    24    14    15    1
    25    14    16   ar
    26    16    17   ar
    27    17    18    1
    28    17    19   ar
    29     6     1    1
    30    19    12   ar
    31    26    21   ar
    32    10    11    1
@<TRIPOS>MOLECULE
*****
 30 32 0 0 0
SMALL
GASTEIGER

@<TRIPOS>ATOM
      1 C         140.9450  144.9096  163.1325 C.3     1  UNL1        0.0224
      2 C         142.3792  145.0823  163.5366 C.3     1  UNL1        0.0191
      3 C         143.0189  144.0984  164.4706 C.3     1  UNL1        0.0724
      4 N         142.2245  142.9417  165.0007 N.3     1  UNL1       -0.2690
      5 C         140.7903  142.7690  164.5966 C.3     1  UNL1        0.0724
      6 C         140.1506  143.7529  163.6625 C.3     1  UNL1        0.0191
      7 C         140.3052  145.8936  162.1983 C.3     1  UNL1        0.0897
      8 O         142.0370  144.9354  159.9437 O.2     1  UNL1       -0.2701
      9 C         140.5444  144.9382  159.7941 C.2     1  UNL1        0.2459
     10 N         139.6786  145.4173  160.9215 N.am    1  UNL1       -0.3009
     11 H         138.6990  145.4191  160.8233 H       1  UNL1        0.1497
     12 C         139.9178  144.4619  158.5173 C.ar    1  UNL1        0.0550
     13 C         140.0484  145.2801  157.2669 C.ar    1  UNL1        0.0160
     14 C         139.4217  144.8038  155.9901 C.ar    1  UNL1        0.0587
     15 CL        139.5524  145.6220  154.7397 Cl      1  UNL1       -0.0822
     16 C         138.6644  143.5092  155.9636 C.ar    1  UNL1        0.0228
     17 C         138.5337  142.6910  157.2140 C.ar    1  UNL1        0.0587
     18 CL        137.7764  141.3966  157.1875 Cl      1  UNL1       -0.0822
     19 C         139.1605  143.1674  158.4909 C.ar    1  UNL1        0.0160
     20 C         142.8642  141.9577  165.9348 C.3     1  UNL1        0.0991
     21 C         142.4961  141.9554  167.3889 C.ar    1  UNL1       -0.0062
     22 C         143.4733  142.4562  168.4108 C.ar    1  UNL1       -0.0029
     23 C         143.1050  142.4539  169.8650 C.ar    1  UNL1       -0.0003
     24 C         141.7597  141.9508  170.2971 C.ar    1  UNL1        0.0038
     25 C         140.7824  141.4500  169.2752 C.ar    1  UNL1        0.0712
     26 C         141.1506  141.4523  167.8211 C.ar    1  UNL1        0.0009
     27 C         139.4371  140.9470  169.7074 C.3     1  UNL1        0.4186
     28 F         138.0916  140.4439  170.1396 F       1  UNL1       -0.1659
     29 F         139.1845  142.2394  170.4255 F       1  UNL1       -0.1659
     30 F         139.6896  139.6546  168.9893 F       1  UNL1       -0.1659
@<TRIPOS>BOND
     1     8     9    2
     2     9    10   am
     3    10     7    1
     4     7     1    1
     5     1     2    1
     6     2     3    1
     7     3     4    1
     8     4    20    1
     9    20    21    1
    10    21    22   ar
    11    22    23   ar
    12    23    24   ar
    13    24    25   ar
    14    25    27    1
    15    27    28    1
    16    27    29    1
    17    27    30    1
    18    25    26   ar
    19     4     5    1
    20     5     6    1
    21     9    12    1
    22    12    13   ar
    23    13    14   ar
    24    14    15    1
    25    14    16   ar
    26    16    17   ar
    27    17    18    1
    28    17    19   ar
    29     6     1    1
    30    19    12   ar
    31    26    21   ar
    32    10    11    1
