@<TRIPOS>MOLECULE
*****
 33 37 0 0 0
SMALL
GASTEIGER

@<TRIPOS>ATOM
      1 C         141.2644  144.7451  162.2143 C.2     1  UNL1        0.0866
      2 N         140.0703  145.6197  162.4577 N.2     1  UNL1       -0.1523
      3 N         139.5723  146.1048  161.1285 N.2     1  UNL1       -0.1523
      4 C         140.4587  145.5299  160.0636 C.2     1  UNL1        0.0858
      5 C         141.5044  144.6896  160.7347 C.3     1  UNL1        0.0883
      6 C         142.3907  144.1148  159.6698 C.3     1  UNL1        0.0384
      7 C         141.8928  144.5998  158.3406 C.ar    1  UNL1       -0.0202
      8 C         142.3724  144.3581  156.9401 C.ar    1  UNL1       -0.0045
      9 C         141.6580  144.9909  155.7829 C.ar    1  UNL1       -0.0032
     10 C         140.4639  145.8655  156.0263 C.ar    1  UNL1       -0.0061
     11 C         139.9843  146.1073  157.4268 C.ar    1  UNL1       -0.0020
     12 C         140.6987  145.4744  158.5839 C.ar    1  UNL1        0.0115
     13 C         142.7240  142.5726  165.0805 C.ar    1  UNL1        0.0710
     14 C         141.5807  142.9859  164.2018 C.ar    1  UNL1        0.0165
     15 C         142.0760  144.0483  163.2659 C.ar    1  UNL1        0.0233
     16 C         143.5253  144.2917  163.5662 C.ar    1  UNL1        0.0373
     17 S         143.9258  143.3796  164.6877 S.2     1  UNL1       -0.0780
     18 C         142.6242  140.4966  167.2438 C.1     1  UNL1       -0.0534
     19 C         142.6741  141.5345  166.1622 C.1     1  UNL1       -0.0554
     20 C         142.5743  139.4586  168.3256 C.3     1  UNL1        0.2182
     21 O         142.9409  139.8241  169.7334 O.3     1  UNL1       -0.3374
     22 C         142.5339  141.1550  170.2929 C.3     1  UNL1        0.1755
     23 C         141.4151  141.2396  171.2885 C.3     1  UNL1        0.1743
     24 C         139.3212  140.6658  169.8615 C.3     1  UNL1        0.1742
     25 O         140.1643  140.4382  171.0811 O.3     1  UNL1       -0.3484
     26 C         139.7494  146.4984  154.8691 C.3     1  UNL1        0.0992
     27 N         139.4962  147.9768  154.8618 N.3     1  UNL1       -0.2665
     28 C         140.0982  148.8356  153.7894 C.3     1  UNL1        0.0899
     29 C         139.8450  150.3141  153.7821 C.3     1  UNL1        0.0897
     30 N         138.9897  150.9338  154.8472 N.3     1  UNL1       -0.2691
     31 C         138.7365  152.4122  154.8399 C.3     1  UNL1        0.0897
     32 C         138.3877  150.0750  155.9197 C.3     1  UNL1        0.0897
     33 C         138.6409  148.5966  155.9270 C.3     1  UNL1        0.0899
@<TRIPOS>BOND
     1    24    25    1
     2    25    23    1
     3    23    22    1
     4    22    21    1
     5    21    20    1
     6    20    18    1
     7    18    19    3
     8    19    13    1
     9    13    14   ar
    10    14    15   ar
    11    15     1    1
    12     1     2    2
    13     2     3    1
    14     3     4    2
    15     4     5    1
    16     5     6    1
    17     6     7    1
    18     7     8   ar
    19     8     9   ar
    20     9    10   ar
    21    10    26    1
    22    26    27    1
    23    27    28    1
    24    28    29    1
    25    29    30    1
    26    30    31    1
    27    30    32    1
    28    32    33    1
    29    10    11   ar
    30    11    12   ar
    31    15    16   ar
    32    16    17   ar
    33    17    13   ar
    34     5     1    1
    35    12     7   ar
    36    12     4    1
    37    33    27    1
@<TRIPOS>MOLECULE
*****
 33 37 0 0 0
SMALL
GASTEIGER

@<TRIPOS>ATOM
      1 C         142.6397  139.5267  162.9092 C.2     1  UNL1        0.0866
      2 N         141.9252  138.2289  163.1446 N.2     1  UNL1       -0.1523
      3 N         141.7707  137.5383  161.8220 N.2     1  UNL1       -0.1523
      4 C         142.3897  138.4093  160.7692 C.2     1  UNL1        0.0858
      5 C         142.9268  139.6381  161.4412 C.3     1  UNL1        0.0883
      6 C         143.5458  140.5090  160.3884 C.3     1  UNL1        0.0384
      7 C         143.3912  139.8184  159.0658 C.ar    1  UNL1       -0.0202
      8 C         143.8088  140.2036  157.6775 C.ar    1  UNL1       -0.0045
      9 C         143.5119  139.2911  156.5247 C.ar    1  UNL1       -0.0032
     10 C         142.7974  137.9934  156.7601 C.ar    1  UNL1       -0.0061
     11 C         142.3798  137.6082  158.1483 C.ar    1  UNL1       -0.0020
     12 C         142.6768  138.5207  159.3011 C.ar    1  UNL1        0.0115
     13 C         143.1551  141.7118  166.0754 C.ar    1  UNL1        0.0710
     14 C         142.5572  140.5191  165.3898 C.ar    1  UNL1        0.0165
     15 C         143.0034  140.5358  163.9578 C.ar    1  UNL1        0.0233
     16 C         143.8770  141.7387  163.7583 C.ar    1  UNL1        0.0373
     17 S         143.9708  142.4656  165.0672 S.2     1  UNL1       -0.0780
     18 C         142.7847  142.4585  168.9572 C.1     1  UNL1       -0.0534
     19 C         142.9699  142.0852  167.5164 C.1     1  UNL1       -0.0554
     20 C         142.5994  142.8319  170.3981 C.3     1  UNL1        0.2182
     21 O         141.2520  142.6913  171.0422 O.3     1  UNL1       -0.3374
     22 C         140.0307  142.5009  170.1924 C.3     1  UNL1        0.1755
     23 C         139.4823  141.1234  169.9654 C.3     1  UNL1        0.1743
     24 C         139.4018  139.8355  167.7104 C.3     1  UNL1        0.1742
     25 O         140.1313  140.2129  168.9655 O.3     1  UNL1       -0.3484
     26 C         142.5005  137.0808  155.6071 C.3     1  UNL1        0.0992
     27 N         142.5703  135.5937  155.7904 N.3     1  UNL1       -0.2665
     28 C         143.7768  134.9726  156.4297 C.3     1  UNL1        0.0899
     29 C         143.8465  133.4854  156.6129 C.3     1  UNL1        0.0897
     30 N         142.7098  132.6195  156.1569 N.3     1  UNL1       -0.2691
     31 C         142.7796  131.1324  156.3402 C.3     1  UNL1        0.0897
     32 C         141.5033  133.2406  155.5177 C.3     1  UNL1        0.0897
     33 C         141.4336  134.7277  155.3344 C.3     1  UNL1        0.0899
@<TRIPOS>BOND
     1    24    25    1
     2    25    23    1
     3    23    22    1
     4    22    21    1
     5    21    20    1
     6    20    18    1
     7    18    19    3
     8    19    13    1
     9    13    14   ar
    10    14    15   ar
    11    15     1    1
    12     1     2    2
    13     2     3    1
    14     3     4    2
    15     4     5    1
    16     5     6    1
    17     6     7    1
    18     7     8   ar
    19     8     9   ar
    20     9    10   ar
    21    10    26    1
    22    26    27    1
    23    27    28    1
    24    28    29    1
    25    29    30    1
    26    30    31    1
    27    30    32    1
    28    32    33    1
    29    10    11   ar
    30    11    12   ar
    31    15    16   ar
    32    16    17   ar
    33    17    13   ar
    34     5     1    1
    35    12     7   ar
    36    12     4    1
    37    33    27    1
@<TRIPOS>MOLECULE
*****
 33 37 0 0 0
SMALL
GASTEIGER

@<TRIPOS>ATOM
      1 C         142.0728  141.3995  162.6961 C.2     1  UNL1        0.0866
      2 N         143.5633  141.2765  162.5812 N.2     1  UNL1       -0.1523
      3 N         143.8685  140.4619  161.3591 N.2     1  UNL1       -0.1523
      4 C         142.5664  140.0814  160.7188 C.2     1  UNL1        0.0858
      5 C         141.4567  140.6609  161.5451 C.3     1  UNL1        0.0883
      6 C         140.1547  140.2804  160.9047 C.3     1  UNL1        0.0384
      7 C         140.4597  139.4658  159.6827 C.ar    1  UNL1       -0.0202
      8 C         139.5728  138.8201  158.6597 C.ar    1  UNL1       -0.0045
      9 C         140.1765  138.0515  157.5218 C.ar    1  UNL1       -0.0032
     10 C         141.6670  137.9286  157.4069 C.ar    1  UNL1       -0.0061
     11 C         142.5539  138.5742  158.4299 C.ar    1  UNL1       -0.0020
     12 C         141.9503  139.3428  159.5678 C.ar    1  UNL1        0.0115
     13 C         140.5869  142.9021  165.9518 C.ar    1  UNL1        0.0710
     14 C         141.5432  141.9838  165.2502 C.ar    1  UNL1        0.0165
     15 C         141.3290  142.1323  163.7730 C.ar    1  UNL1        0.0233
     16 C         140.2403  143.1424  163.5617 C.ar    1  UNL1        0.0373
     17 S         139.7817  143.6181  164.9083 S.2     1  UNL1       -0.0780
     18 C         140.3300  143.2462  168.9209 C.1     1  UNL1       -0.0534
     19 C         140.4585  143.0742  167.4364 C.1     1  UNL1       -0.0554
     20 C         140.2015  143.4182  170.4054 C.3     1  UNL1        0.2182
     21 O         140.0967  142.2141  171.2938 O.3     1  UNL1       -0.3374
     22 C         141.0547  141.0722  171.1254 C.3     1  UNL1        0.1755
     23 C         140.7133  139.9358  170.2078 C.3     1  UNL1        0.1743
     24 C         139.2345  139.7852  168.0769 C.3     1  UNL1        0.1742
     25 O         139.3576  139.8685  169.5695 O.3     1  UNL1       -0.3484
     26 C         142.2706  137.1599  156.2690 C.3     1  UNL1        0.0992
     27 N         142.3595  135.6641  156.3378 N.3     1  UNL1       -0.2665
     28 C         143.3165  135.0128  157.2918 C.3     1  UNL1        0.0899
     29 C         143.4054  133.5170  157.3606 C.3     1  UNL1        0.0897
     30 N         142.5374  132.6726  156.4755 N.3     1  UNL1       -0.2691
     31 C         142.6263  131.1768  156.5444 C.3     1  UNL1        0.0897
     32 C         141.5804  133.3239  155.5216 C.3     1  UNL1        0.0897
     33 C         141.4915  134.8196  155.4527 C.3     1  UNL1        0.0899
@<TRIPOS>BOND
     1    24    25    1
     2    25    23    1
     3    23    22    1
     4    22    21    1
     5    21    20    1
     6    20    18    1
     7    18    19    3
     8    19    13    1
     9    13    14   ar
    10    14    15   ar
    11    15     1    1
    12     1     2    2
    13     2     3    1
    14     3     4    2
    15     4     5    1
    16     5     6    1
    17     6     7    1
    18     7     8   ar
    19     8     9   ar
    20     9    10   ar
    21    10    26    1
    22    26    27    1
    23    27    28    1
    24    28    29    1
    25    29    30    1
    26    30    31    1
    27    30    32    1
    28    32    33    1
    29    10    11   ar
    30    11    12   ar
    31    15    16   ar
    32    16    17   ar
    33    17    13   ar
    34     5     1    1
    35    12     7   ar
    36    12     4    1
    37    33    27    1
@<TRIPOS>MOLECULE
*****
 33 37 0 0 0
SMALL
GASTEIGER

@<TRIPOS>ATOM
      1 C         138.1496  141.2953  159.9854 C.2     1  UNL1        0.0866
      2 N         137.7531  142.6074  160.5946 N.2     1  UNL1       -0.1523
      3 N         137.6992  142.4300  162.0832 N.2     1  UNL1       -0.1523
      4 C         138.0623  141.0080  162.3938 C.2     1  UNL1        0.0858
      5 C         138.3407  140.3069  161.0974 C.3     1  UNL1        0.0883
      6 C         138.7038  138.8850  161.4081 C.3     1  UNL1        0.0384
      7 C         138.6499  138.7075  162.8966 C.ar    1  UNL1       -0.0202
      8 C         138.9105  137.5206  163.7759 C.ar    1  UNL1       -0.0045
      9 C         138.7747  137.6457  165.2644 C.ar    1  UNL1       -0.0032
     10 C         138.3783  138.9579  165.8737 C.ar    1  UNL1       -0.0061
     11 C         138.1176  140.1448  164.9944 C.ar    1  UNL1       -0.0020
     12 C         138.2534  140.0196  163.5058 C.ar    1  UNL1        0.0115
     13 C         138.9800  139.9749  156.4312 C.ar    1  UNL1        0.0710
     14 C         139.0530  139.8526  157.9245 C.ar    1  UNL1        0.0165
     15 C         138.3243  141.0200  158.5213 C.ar    1  UNL1        0.0233
     16 C         137.8009  141.8638  157.3969 C.ar    1  UNL1        0.0373
     17 S         138.2062  141.2178  156.1052 S.2     1  UNL1       -0.0780
     18 C         140.1723  138.0683  154.4456 C.1     1  UNL1       -0.0534
     19 C         139.5762  139.0216  155.4384 C.1     1  UNL1       -0.0554
     20 C         140.7685  137.1149  153.4528 C.3     1  UNL1        0.2182
     21 O         142.2209  136.7508  153.5412 O.3     1  UNL1       -0.3374
     22 C         142.6879  135.7765  154.5817 C.3     1  UNL1        0.1755
     23 C         143.9021  136.0849  155.4067 C.3     1  UNL1        0.1743
     24 C         142.4029  137.2051  157.2088 C.3     1  UNL1        0.1742
     25 O         143.7649  136.8642  156.6809 O.3     1  UNL1       -0.3484
     26 C         138.2425  139.0830  167.3623 C.3     1  UNL1        0.0992
     27 N         139.3012  139.7904  168.1552 N.3     1  UNL1       -0.2665
     28 C         138.9915  140.3031  169.5303 C.3     1  UNL1        0.0899
     29 C         140.0503  141.0105  170.3232 C.3     1  UNL1        0.0897
     30 N         141.4188  141.2051  169.7408 N.3     1  UNL1       -0.2691
     31 C         142.4776  141.9125  170.5337 C.3     1  UNL1        0.0897
     32 C         141.7286  140.6924  168.3657 C.3     1  UNL1        0.0897
     33 C         140.6699  139.9850  167.5728 C.3     1  UNL1        0.0899
@<TRIPOS>BOND
     1    24    25    1
     2    25    23    1
     3    23    22    1
     4    22    21    1
     5    21    20    1
     6    20    18    1
     7    18    19    3
     8    19    13    1
     9    13    14   ar
    10    14    15   ar
    11    15     1    1
    12     1     2    2
    13     2     3    1
    14     3     4    2
    15     4     5    1
    16     5     6    1
    17     6     7    1
    18     7     8   ar
    19     8     9   ar
    20     9    10   ar
    21    10    26    1
    22    26    27    1
    23    27    28    1
    24    28    29    1
    25    29    30    1
    26    30    31    1
    27    30    32    1
    28    32    33    1
    29    10    11   ar
    30    11    12   ar
    31    15    16   ar
    32    16    17   ar
    33    17    13   ar
    34     5     1    1
    35    12     7   ar
    36    12     4    1
    37    33    27    1
@<TRIPOS>MOLECULE
*****
 33 37 0 0 0
SMALL
GASTEIGER

@<TRIPOS>ATOM
      1 C         140.1078  142.2912  162.2103 C.2     1  UNL1        0.0866
      2 N         138.6206  142.2771  162.0152 N.2     1  UNL1       -0.1523
      3 N         138.3196  142.9285  160.6979 N.2     1  UNL1       -0.1523
      4 C         139.6210  143.3452  160.0789 C.2     1  UNL1        0.0858
      5 C         140.7260  142.9513  161.0136 C.3     1  UNL1        0.0883
      6 C         142.0272  143.3680  160.3946 C.3     1  UNL1        0.0384
      7 C         141.7264  144.0194  159.0774 C.ar    1  UNL1       -0.0202
      8 C         142.6145  144.6236  158.0304 C.ar    1  UNL1       -0.0045
      9 C         142.0154  145.2137  156.7883 C.ar    1  UNL1       -0.0032
     10 C         140.5282  145.1996  156.5932 C.ar    1  UNL1       -0.0061
     11 C         139.6401  144.5954  157.6402 C.ar    1  UNL1       -0.0020
     12 C         140.2392  144.0053  158.8823 C.ar    1  UNL1        0.0115
     13 C         141.9037  141.5517  165.5708 C.ar    1  UNL1        0.0710
     14 C         141.1508  142.4797  164.6642 C.ar    1  UNL1        0.0165
     15 C         140.8469  141.7416  163.3942 C.ar    1  UNL1        0.0233
     16 C         141.4120  140.3574  163.5159 C.ar    1  UNL1        0.0373
     17 S         142.0652  140.2401  164.8612 S.2     1  UNL1       -0.0780
     18 C         142.9098  142.2044  168.3206 C.1     1  UNL1       -0.0534
     19 C         142.4068  141.8780  166.9457 C.1     1  UNL1       -0.0554
     20 C         143.4129  142.5307  169.6956 C.3     1  UNL1        0.2182
     21 O         142.5670  143.3434  170.6304 O.3     1  UNL1       -0.3374
     22 C         141.1662  143.7148  170.2435 C.3     1  UNL1        0.1755
     23 C         140.0579  142.7144  170.3880 C.3     1  UNL1        0.1743
     24 C         140.0070  140.1295  170.6441 C.3     1  UNL1        0.1742
     25 O         140.2593  141.4880  171.2278 O.3     1  UNL1       -0.3484
     26 C         139.9291  145.7897  155.3510 C.3     1  UNL1        0.0992
     27 N         139.6109  147.2545  155.2946 N.3     1  UNL1       -0.2665
     28 C         140.0189  148.0652  154.1004 C.3     1  UNL1        0.0899
     29 C         139.7007  149.5300  154.0441 C.3     1  UNL1        0.0897
     30 N         138.9744  150.1840  155.1820 N.3     1  UNL1       -0.2691
     31 C         138.6562  151.6488  155.1256 C.3     1  UNL1        0.0897
     32 C         138.5664  149.3733  156.3762 C.3     1  UNL1        0.0897
     33 C         138.8846  147.9085  156.4326 C.3     1  UNL1        0.0899
@<TRIPOS>BOND
     1    24    25    1
     2    25    23    1
     3    23    22    1
     4    22    21    1
     5    21    20    1
     6    20    18    1
     7    18    19    3
     8    19    13    1
     9    13    14   ar
    10    14    15   ar
    11    15     1    1
    12     1     2    2
    13     2     3    1
    14     3     4    2
    15     4     5    1
    16     5     6    1
    17     6     7    1
    18     7     8   ar
    19     8     9   ar
    20     9    10   ar
    21    10    26    1
    22    26    27    1
    23    27    28    1
    24    28    29    1
    25    29    30    1
    26    30    31    1
    27    30    32    1
    28    32    33    1
    29    10    11   ar
    30    11    12   ar
    31    15    16   ar
    32    16    17   ar
    33    17    13   ar
    34     5     1    1
    35    12     7   ar
    36    12     4    1
    37    33    27    1
@<TRIPOS>MOLECULE
*****
 33 37 0 0 0
SMALL
GASTEIGER

@<TRIPOS>ATOM
      1 C         142.9067  138.6201  159.1878 C.2     1  UNL1        0.0866
      2 N         144.0973  139.5303  159.2519 N.2     1  UNL1       -0.1523
      3 N         144.3848  139.8166  160.6960 N.2     1  UNL1       -0.1523
      4 C         143.3717  139.0833  161.5245 C.2     1  UNL1        0.0858
      5 C         142.4583  138.3439  160.5923 C.3     1  UNL1        0.0883
      6 C         141.4453  137.6108  161.4207 C.3     1  UNL1        0.0384
      7 C         141.7327  137.8970  162.8649 C.ar    1  UNL1       -0.0202
      8 C         141.0641  137.4465  164.1297 C.ar    1  UNL1       -0.0045
      9 C         141.5860  137.9062  165.4587 C.ar    1  UNL1       -0.0032
     10 C         142.7767  138.8163  165.5228 C.ar    1  UNL1       -0.0061
     11 C         143.4453  139.2668  164.2579 C.ar    1  UNL1       -0.0020
     12 C         142.9233  138.8071  162.9290 C.ar    1  UNL1        0.0115
     13 C         141.7519  136.6506  156.0489 C.ar    1  UNL1        0.0710
     14 C         142.6293  136.7923  157.2572 C.ar    1  UNL1        0.0165
     15 C         142.2754  138.0809  157.9386 C.ar    1  UNL1        0.0233
     16 C         141.1791  138.7356  157.1514 C.ar    1  UNL1        0.0373
     17 S         140.8556  137.8516  155.9834 S.2     1  UNL1       -0.0780
     18 C         141.7840  134.3664  154.1045 C.1     1  UNL1       -0.0534
     19 C         141.7679  135.5085  155.0767 C.1     1  UNL1       -0.0554
     20 C         141.7999  133.2242  153.1322 C.3     1  UNL1        0.2182
     21 O         141.8853  131.8132  153.6340 O.3     1  UNL1       -0.3374
     22 C         141.5429  131.5026  155.0610 C.3     1  UNL1        0.1755
     23 C         142.6101  131.5438  156.1143 C.3     1  UNL1        0.1743
     24 C         143.8849  133.3340  157.4999 C.3     1  UNL1        0.1742
     25 O         142.6065  132.6350  157.1434 O.3     1  UNL1       -0.3484
     26 C         143.2987  139.2759  166.8519 C.3     1  UNL1        0.0992
     27 N         142.4483  140.1426  167.7326 N.3     1  UNL1       -0.2665
     28 C         141.9307  141.4538  167.2200 C.3     1  UNL1        0.0899
     29 C         141.0803  142.3205  168.1008 C.3     1  UNL1        0.0897
     30 N         140.7475  141.8759  169.4942 N.3     1  UNL1       -0.2691
     31 C         139.8972  142.7425  170.3749 C.3     1  UNL1        0.0897
     32 C         141.2651  140.5646  170.0068 C.3     1  UNL1        0.0897
     33 C         142.1155  139.6980  169.1261 C.3     1  UNL1        0.0899
@<TRIPOS>BOND
     1    24    25    1
     2    25    23    1
     3    23    22    1
     4    22    21    1
     5    21    20    1
     6    20    18    1
     7    18    19    3
     8    19    13    1
     9    13    14   ar
    10    14    15   ar
    11    15     1    1
    12     1     2    2
    13     2     3    1
    14     3     4    2
    15     4     5    1
    16     5     6    1
    17     6     7    1
    18     7     8   ar
    19     8     9   ar
    20     9    10   ar
    21    10    26    1
    22    26    27    1
    23    27    28    1
    24    28    29    1
    25    29    30    1
    26    30    31    1
    27    30    32    1
    28    32    33    1
    29    10    11   ar
    30    11    12   ar
    31    15    16   ar
    32    16    17   ar
    33    17    13   ar
    34     5     1    1
    35    12     7   ar
    36    12     4    1
    37    33    27    1
@<TRIPOS>MOLECULE
*****
 33 37 0 0 0
SMALL
GASTEIGER

@<TRIPOS>ATOM
      1 C         142.7868  138.5370  160.7835 C.2     1  UNL1        0.0866
      2 N         143.9580  138.2798  161.6846 N.2     1  UNL1       -0.1523
      3 N         143.4990  138.4525  163.1022 N.2     1  UNL1       -0.1523
      4 C         142.0440  138.8165  163.0772 C.2     1  UNL1        0.0858
      5 C         141.6039  138.8687  161.6441 C.3     1  UNL1        0.0883
      6 C         140.1489  139.2326  161.6191 C.3     1  UNL1        0.0384
      7 C         139.6898  139.4053  163.0367 C.ar    1  UNL1       -0.0202
      8 C         138.3567  139.7636  163.6233 C.ar    1  UNL1       -0.0045
      9 C         138.1947  139.8646  165.1111 C.ar    1  UNL1       -0.0032
     10 C         139.3660  139.6074  166.0122 C.ar    1  UNL1       -0.0061
     11 C         140.6992  139.2492  165.4256 C.ar    1  UNL1       -0.0020
     12 C         140.8611  139.1481  163.9378 C.ar    1  UNL1        0.0115
     13 C         142.6633  137.6418  157.0087 C.ar    1  UNL1        0.0710
     14 C         142.5619  137.2480  158.4526 C.ar    1  UNL1        0.0165
     15 C         142.7967  138.4737  159.2849 C.ar    1  UNL1        0.0233
     16 C         143.0431  139.6250  158.3554 C.ar    1  UNL1        0.0373
     17 S         142.9606  139.1108  156.9486 S.2     1  UNL1       -0.0780
     18 C         142.3297  135.8124  154.6547 C.1     1  UNL1       -0.0534
     19 C         142.4965  136.7271  155.8317 C.1     1  UNL1       -0.0554
     20 C         142.1629  134.8977  153.4776 C.3     1  UNL1        0.2182
     21 O         141.7290  133.4772  153.6872 O.3     1  UNL1       -0.3374
     22 C         141.3787  132.9953  155.0638 C.3     1  UNL1        0.1755
     23 C         142.4002  132.2669  155.8860 C.3     1  UNL1        0.1743
     24 C         143.7196  133.7110  157.5958 C.3     1  UNL1        0.1742
     25 O         143.6645  132.9607  156.2982 O.3     1  UNL1       -0.3484
     26 C         139.2040  139.7085  167.5001 C.3     1  UNL1        0.0992
     27 N         140.1383  140.5674  168.2996 N.3     1  UNL1       -0.2665
     28 C         140.8243  140.0050  169.5092 C.3     1  UNL1        0.0899
     29 C         141.7586  140.8640  170.3088 C.3     1  UNL1        0.0897
     30 N         142.0069  142.2853  169.8987 N.3     1  UNL1       -0.2691
     31 C         142.9412  143.1442  170.6982 C.3     1  UNL1        0.0897
     32 C         141.3209  142.8477  168.6891 C.3     1  UNL1        0.0897
     33 C         140.3866  141.9888  167.8896 C.3     1  UNL1        0.0899
@<TRIPOS>BOND
     1    24    25    1
     2    25    23    1
     3    23    22    1
     4    22    21    1
     5    21    20    1
     6    20    18    1
     7    18    19    3
     8    19    13    1
     9    13    14   ar
    10    14    15   ar
    11    15     1    1
    12     1     2    2
    13     2     3    1
    14     3     4    2
    15     4     5    1
    16     5     6    1
    17     6     7    1
    18     7     8   ar
    19     8     9   ar
    20     9    10   ar
    21    10    26    1
    22    26    27    1
    23    27    28    1
    24    28    29    1
    25    29    30    1
    26    30    31    1
    27    30    32    1
    28    32    33    1
    29    10    11   ar
    30    11    12   ar
    31    15    16   ar
    32    16    17   ar
    33    17    13   ar
    34     5     1    1
    35    12     7   ar
    36    12     4    1
    37    33    27    1
@<TRIPOS>MOLECULE
*****
 33 37 0 0 0
SMALL
GASTEIGER

@<TRIPOS>ATOM
      1 C         140.4012  144.4060  159.0164 C.2     1  UNL1        0.0866
      2 N         141.5146  144.9417  159.8670 N.2     1  UNL1       -0.1523
      3 N         141.5196  144.1788  161.1585 N.2     1  UNL1       -0.1523
      4 C         140.4092  143.1715  161.1061 C.2     1  UNL1        0.0858
      5 C         139.7181  143.3120  159.7822 C.3     1  UNL1        0.0883
      6 C         138.6079  142.3047  159.7298 C.3     1  UNL1        0.0384
      7 C         138.6128  141.5417  161.0213 C.ar    1  UNL1       -0.0202
      8 C         137.7474  140.4284  161.5326 C.ar    1  UNL1       -0.0045
      9 C         137.9953  139.8508  162.8945 C.ar    1  UNL1       -0.0032
     10 C         139.1086  140.3866  163.7451 C.ar    1  UNL1       -0.0061
     11 C         139.9740  141.4999  163.2338 C.ar    1  UNL1       -0.0020
     12 C         139.7261  142.0775  161.8719 C.ar    1  UNL1        0.0115
     13 C         139.7864  146.2767  155.6716 C.ar    1  UNL1        0.0710
     14 C         140.3287  146.2362  157.0695 C.ar    1  UNL1        0.0165
     15 C         140.0353  144.8809  157.6414 C.ar    1  UNL1        0.0233
     16 C         139.3116  144.0837  156.5969 C.ar    1  UNL1        0.0373
     17 S         139.1578  144.9465  155.3795 S.2     1  UNL1       -0.0780
     18 C         139.9332  148.6088  153.7903 C.1     1  UNL1       -0.0534
     19 C         139.8598  147.4428  154.7309 C.1     1  UNL1       -0.0554
     20 C         140.0065  149.7750  152.8497 C.3     1  UNL1        0.2182
     21 O         139.9002  151.1741  153.3798 O.3     1  UNL1       -0.3374
     22 C         139.9786  151.4246  154.8567 C.3     1  UNL1        0.1755
     23 C         138.7206  151.5522  155.6636 C.3     1  UNL1        0.1743
     24 C         138.1829  149.6552  157.3554 C.3     1  UNL1        0.1742
     25 O         137.9407  150.3263  156.0360 O.3     1  UNL1       -0.3484
     26 C         139.3565  139.8089  165.1071 C.3     1  UNL1        0.0992
     27 N         140.3558  140.4506  166.0234 N.3     1  UNL1       -0.2665
     28 C         141.7521  139.9090  166.1077 C.3     1  UNL1        0.0899
     29 C         142.7514  140.5508  167.0240 C.3     1  UNL1        0.0897
     30 N         142.3544  141.7340  167.8561 N.3     1  UNL1       -0.2691
     31 C         143.3537  142.3756  168.7723 C.3     1  UNL1        0.0897
     32 C         140.9581  142.2755  167.7718 C.3     1  UNL1        0.0897
     33 C         139.9588  141.6339  166.8555 C.3     1  UNL1        0.0899
@<TRIPOS>BOND
     1    24    25    1
     2    25    23    1
     3    23    22    1
     4    22    21    1
     5    21    20    1
     6    20    18    1
     7    18    19    3
     8    19    13    1
     9    13    14   ar
    10    14    15   ar
    11    15     1    1
    12     1     2    2
    13     2     3    1
    14     3     4    2
    15     4     5    1
    16     5     6    1
    17     6     7    1
    18     7     8   ar
    19     8     9   ar
    20     9    10   ar
    21    10    26    1
    22    26    27    1
    23    27    28    1
    24    28    29    1
    25    29    30    1
    26    30    31    1
    27    30    32    1
    28    32    33    1
    29    10    11   ar
    30    11    12   ar
    31    15    16   ar
    32    16    17   ar
    33    17    13   ar
    34     5     1    1
    35    12     7   ar
    36    12     4    1
    37    33    27    1
@<TRIPOS>MOLECULE
*****
 33 37 0 0 0
SMALL
GASTEIGER

@<TRIPOS>ATOM
      1 C         140.4377  144.5279  160.2934 C.2     1  UNL1        0.0866
      2 N         139.2343  144.8167  161.1410 N.2     1  UNL1       -0.1523
      3 N         139.5774  144.4822  162.5624 N.2     1  UNL1       -0.1523
      4 C         140.9929  143.9866  162.5932 C.2     1  UNL1        0.0858
      5 C         141.5245  144.0149  161.1909 C.3     1  UNL1        0.0883
      6 C         142.9400  143.5194  161.2217 C.3     1  UNL1        0.0384
      7 C         143.2832  143.1848  162.6431 C.ar    1  UNL1       -0.0202
      8 C         144.5359  142.6545  163.2750 C.ar    1  UNL1       -0.0045
      9 C         144.5853  142.4131  164.7546 C.ar    1  UNL1       -0.0032
     10 C         143.3820  142.7018  165.6023 C.ar    1  UNL1       -0.0061
     11 C         142.1292  143.2321  164.9703 C.ar    1  UNL1       -0.0020
     12 C         142.0798  143.4736  163.4908 C.ar    1  UNL1        0.0115
     13 C         140.4995  145.7332  156.6044 C.ar    1  UNL1        0.0710
     14 C         140.2878  145.9976  158.0656 C.ar    1  UNL1        0.0165
     15 C         140.5368  144.7186  158.8088 C.ar    1  UNL1        0.0233
     16 C         140.9023  143.6638  157.8069 C.ar    1  UNL1        0.0373
     17 S         140.8792  144.2909  156.4444 S.2     1  UNL1       -0.0780
     18 C         140.2134  147.7373  154.3904 C.1     1  UNL1       -0.0534
     19 C         140.3565  146.7353  155.4974 C.1     1  UNL1       -0.0554
     20 C         140.0703  148.7394  153.2835 C.3     1  UNL1        0.2182
     21 O         139.3083  150.0103  153.5161 O.3     1  UNL1       -0.3374
     22 C         139.2619  150.6167  154.8872 C.3     1  UNL1        0.1755
     23 C         138.5669  151.9282  155.1041 C.3     1  UNL1        0.1743
     24 C         138.9854  154.3237  154.1894 C.3     1  UNL1        0.1742
     25 O         139.3571  153.2031  155.1147 O.3     1  UNL1       -0.3484
     26 C         143.4314  142.4603  167.0819 C.3     1  UNL1        0.0992
     27 N         142.2304  141.9104  167.7926 N.3     1  UNL1       -0.2665
     28 C         141.6149  142.6749  168.9270 C.3     1  UNL1        0.0899
     29 C         140.4139  142.1249  169.6377 C.3     1  UNL1        0.0897
     30 N         139.8283  140.8105  169.2140 N.3     1  UNL1       -0.2691
     31 C         138.6273  140.2606  169.9248 C.3     1  UNL1        0.0897
     32 C         140.4438  140.0461  168.0796 C.3     1  UNL1        0.0897
     33 C         141.6448  140.5960  167.3689 C.3     1  UNL1        0.0899
@<TRIPOS>BOND
     1    24    25    1
     2    25    23    1
     3    23    22    1
     4    22    21    1
     5    21    20    1
     6    20    18    1
     7    18    19    3
     8    19    13    1
     9    13    14   ar
    10    14    15   ar
    11    15     1    1
    12     1     2    2
    13     2     3    1
    14     3     4    2
    15     4     5    1
    16     5     6    1
    17     6     7    1
    18     7     8   ar
    19     8     9   ar
    20     9    10   ar
    21    10    26    1
    22    26    27    1
    23    27    28    1
    24    28    29    1
    25    29    30    1
    26    30    31    1
    27    30    32    1
    28    32    33    1
    29    10    11   ar
    30    11    12   ar
    31    15    16   ar
    32    16    17   ar
    33    17    13   ar
    34     5     1    1
    35    12     7   ar
    36    12     4    1
    37    33    27    1
