@<TRIPOS>MOLECULE
*****
 32 36 0 0 0
SMALL
GASTEIGER

@<TRIPOS>ATOM
      1 O         138.5661  143.7973  155.2313 O.2     1  UNL1       -0.2258
      2 C         139.1982  144.3055  156.4931 C.2     1  UNL1        0.4087
      3 O         139.3443  143.5416  157.7758 O.3     1  UNL1       -0.4398
      4 C         140.0316  144.4308  158.7692 C.3     1  UNL1        0.1561
      5 C         139.6883  143.0715  159.3023 C.3     1  UNL1        0.0425
      6 C         140.0358  142.7106  160.7161 C.3     1  UNL1        0.0160
      7 C         140.7267  143.7092  161.5969 C.3     1  UNL1        0.1122
      8 C         141.0700  145.0685  161.0638 C.3     1  UNL1        0.0160
      9 C         140.7224  145.4294  159.6499 C.3     1  UNL1        0.0425
     10 C         140.3103  145.7443  158.1005 C.3     1  UNL1        0.1415
     11 N         139.7953  145.6669  156.6938 N.am    1  UNL1       -0.2193
     12 C         141.0742  143.3483  163.0108 C.2     1  UNL1        0.3506
     13 N         140.1014  143.1553  164.1360 N.2     1  UNL1       -0.0350
     14 C         140.8815  142.8047  165.3683 C.2     1  UNL1        0.2348
     15 C         140.4550  142.5040  166.7746 C.2     1  UNL1        0.0869
     16 C         141.4836  142.1797  167.8172 C.2     1  UNL1        0.1468
     17 C         142.9386  142.1560  167.4534 C.2     1  UNL1        0.0200
     18 C         143.3651  142.4568  166.0471 C.3     1  UNL1        0.1068
     19 C         142.3366  142.7811  165.0046 C.2     1  UNL1        0.2176
     20 N         142.4557  143.1170  163.5476 N.2     1  UNL1       -0.0389
     21 O         141.0571  141.8789  169.2234 O.2     1  UNL1       -0.4047
     22 C         140.2840  142.8981  170.0069 C.3     1  UNL1        0.5753
     23 F         139.5110  143.9173  170.7903 F       1  UNL1       -0.1328
     24 F         141.4201  143.8674  169.8669 F       1  UNL1       -0.1328
     25 F         139.1479  141.9288  170.1469 F       1  UNL1       -0.1328
     26 C         139.8651  146.7589  155.6680 C.ar    1  UNL1        0.0845
     27 C         140.6348  146.5470  154.3981 C.ar    1  UNL1        0.0173
     28 C         140.7046  147.6392  153.3722 C.ar    1  UNL1        0.0014
     29 C         140.0046  148.9432  153.6162 C.ar    1  UNL1        0.0024
     30 C         139.2348  149.1552  154.8862 C.ar    1  UNL1        0.0309
     31 C         139.1651  148.0630  155.9120 C.ar    1  UNL1        0.1538
     32 F         138.3953  148.2749  157.1819 F       1  UNL1       -0.2029
@<TRIPOS>BOND
     1     1     2    2
     2     2     3    1
     3     3     4    1
     4     4     5    1
     5     5     6    1
     6     6     7    1
     7     7    12    1
     8    12    13    2
     9    13    14    1
    10    14    15    2
    11    15    16    1
    12    16    21    1
    13    21    22    1
    14    22    23    1
    15    22    24    1
    16    22    25    1
    17    16    17    2
    18    17    18    1
    19    18    19    1
    20    19    20    2
    21     7     8    1
    22     8     9    1
    23     4    10    1
    24    10    11    1
    25    11    26    1
    26    26    27   ar
    27    27    28   ar
    28    28    29   ar
    29    29    30   ar
    30    30    31   ar
    31    31    32    1
    32    11     2   am
    33    31    26   ar
    34     9     4    1
    35    20    12    1
    36    19    14    1
@<TRIPOS>MOLECULE
*****
 32 36 0 0 0
SMALL
GASTEIGER

@<TRIPOS>ATOM
      1 O         143.6173  142.6030  167.7223 O.2     1  UNL1       -0.2258
      2 C         142.6444  142.7674  166.5925 C.2     1  UNL1        0.4087
      3 O         142.9499  143.3467  165.2430 O.3     1  UNL1       -0.4398
      4 C         141.6894  143.3187  164.4303 C.3     1  UNL1        0.1561
      5 C         142.8697  143.8949  163.7059 C.3     1  UNL1        0.0425
      6 C         142.7201  144.3785  162.2939 C.3     1  UNL1        0.0160
      7 C         141.3901  144.2860  161.6064 C.3     1  UNL1        0.1122
      8 C         140.2098  143.7098  162.3309 C.3     1  UNL1        0.0160
      9 C         140.3595  143.2262  163.7428 C.3     1  UNL1        0.0425
     10 C         140.6049  142.7220  165.2776 C.3     1  UNL1        0.1415
     11 N         141.1950  142.3813  166.6138 N.am    1  UNL1       -0.2193
     12 C         141.2405  144.7697  160.1944 C.2     1  UNL1        0.3506
     13 N         140.0726  145.5325  159.6428 N.2     1  UNL1       -0.0350
     14 C         140.3428  145.8097  158.1936 C.2     1  UNL1        0.2348
     15 C         139.5459  146.5243  157.1429 C.2     1  UNL1        0.0869
     16 C         140.0838  146.6475  155.7480 C.2     1  UNL1        0.1468
     17 C         141.4186  146.0561  155.4040 C.2     1  UNL1        0.0200
     18 C         142.2156  145.3415  156.4548 C.3     1  UNL1        0.1068
     19 C         141.6777  145.2183  157.8496 C.2     1  UNL1        0.2176
     20 N         142.2325  144.5756  159.0861 N.2     1  UNL1       -0.0389
     21 O         139.2868  147.3621  154.6972 O.2     1  UNL1       -0.4047
     22 C         139.6258  148.7769  154.3316 C.3     1  UNL1        0.5753
     23 F         139.9647  150.1916  153.9661 F       1  UNL1       -0.1328
     24 F         138.7728  149.2731  155.4613 F       1  UNL1       -0.1328
     25 F         140.4787  148.2807  153.2019 F       1  UNL1       -0.1328
     26 C         140.4643  141.7631  167.7686 C.ar    1  UNL1        0.0845
     27 C         139.7869  140.4350  167.6032 C.ar    1  UNL1        0.0173
     28 C         139.0561  139.8167  168.7580 C.ar    1  UNL1        0.0014
     29 C         139.0026  140.5266  170.0784 C.ar    1  UNL1        0.0024
     30 C         139.6800  141.8547  170.2439 C.ar    1  UNL1        0.0309
     31 C         140.4108  142.4729  169.0889 C.ar    1  UNL1        0.1538
     32 F         141.0881  143.8011  169.2544 F       1  UNL1       -0.2029
@<TRIPOS>BOND
     1     1     2    2
     2     2     3    1
     3     3     4    1
     4     4     5    1
     5     5     6    1
     6     6     7    1
     7     7    12    1
     8    12    13    2
     9    13    14    1
    10    14    15    2
    11    15    16    1
    12    16    21    1
    13    21    22    1
    14    22    23    1
    15    22    24    1
    16    22    25    1
    17    16    17    2
    18    17    18    1
    19    18    19    1
    20    19    20    2
    21     7     8    1
    22     8     9    1
    23     4    10    1
    24    10    11    1
    25    11    26    1
    26    26    27   ar
    27    27    28   ar
    28    28    29   ar
    29    29    30   ar
    30    30    31   ar
    31    31    32    1
    32    11     2   am
    33    31    26   ar
    34     9     4    1
    35    20    12    1
    36    19    14    1
@<TRIPOS>MOLECULE
*****
 32 36 0 0 0
SMALL
GASTEIGER

@<TRIPOS>ATOM
      1 O         143.3742  139.3340  155.9832 O.2     1  UNL1       -0.2258
      2 C         143.1211  138.8166  157.3682 C.2     1  UNL1        0.4087
      3 O         143.1514  139.6257  158.6310 O.3     1  UNL1       -0.4398
      4 C         142.8423  138.7084  159.7769 C.3     1  UNL1        0.1561
      5 C         143.0889  140.1310  160.1835 C.3     1  UNL1        0.0425
      6 C         143.0142  140.5212  161.6299 C.3     1  UNL1        0.0160
      7 C         142.6930  139.4888  162.6697 C.3     1  UNL1        0.1122
      8 C         142.4464  138.0663  162.2630 C.3     1  UNL1        0.0160
      9 C         142.5210  137.6761  160.8166 C.3     1  UNL1        0.0425
     10 C         142.6209  137.3323  159.2223 C.3     1  UNL1        0.1415
     11 N         142.7933  137.3992  157.7337 N.am    1  UNL1       -0.2193
     12 C         142.6183  139.8791  164.1161 C.2     1  UNL1        0.3506
     13 N         142.3169  141.2500  164.6450 N.2     1  UNL1       -0.0350
     14 C         142.3443  141.1851  166.1434 C.2     1  UNL1        0.2348
     15 C         142.1205  142.2286  167.1975 C.2     1  UNL1        0.0869
     16 C         142.2150  141.8610  168.6487 C.2     1  UNL1        0.1468
     17 C         142.5333  140.4500  169.0458 C.2     1  UNL1        0.0200
     18 C         142.7571  139.4066  167.9917 C.3     1  UNL1        0.1068
     19 C         142.6626  139.7741  166.5405 C.2     1  UNL1        0.2176
     20 N         142.8320  138.9670  165.2876 N.2     1  UNL1       -0.0389
     21 O         141.9912  142.9045  169.7028 O.2     1  UNL1       -0.4047
     22 C         140.6341  143.0672  170.3208 C.3     1  UNL1        0.5753
     23 F         139.2770  143.2300  170.9388 F       1  UNL1       -0.1328
     24 F         141.0308  142.1446  171.4349 F       1  UNL1       -0.1328
     25 F         140.2373  143.9898  169.2066 F       1  UNL1       -0.1328
     26 C         142.6610  136.2504  156.7784 C.ar    1  UNL1        0.0845
     27 C         143.7574  135.2322  156.6734 C.ar    1  UNL1        0.0173
     28 C         143.6251  134.0834  155.7180 C.ar    1  UNL1        0.0014
     29 C         142.3963  133.9527  154.8677 C.ar    1  UNL1        0.0024
     30 C         141.2998  134.9710  154.9727 C.ar    1  UNL1        0.0309
     31 C         141.4322  136.1197  155.9281 C.ar    1  UNL1        0.1538
     32 F         140.3356  137.1380  156.0332 F       1  UNL1       -0.2029
@<TRIPOS>BOND
     1     1     2    2
     2     2     3    1
     3     3     4    1
     4     4     5    1
     5     5     6    1
     6     6     7    1
     7     7    12    1
     8    12    13    2
     9    13    14    1
    10    14    15    2
    11    15    16    1
    12    16    21    1
    13    21    22    1
    14    22    23    1
    15    22    24    1
    16    22    25    1
    17    16    17    2
    18    17    18    1
    19    18    19    1
    20    19    20    2
    21     7     8    1
    22     8     9    1
    23     4    10    1
    24    10    11    1
    25    11    26    1
    26    26    27   ar
    27    27    28   ar
    28    28    29   ar
    29    29    30   ar
    30    30    31   ar
    31    31    32    1
    32    11     2   am
    33    31    26   ar
    34     9     4    1
    35    20    12    1
    36    19    14    1
@<TRIPOS>MOLECULE
*****
 32 36 0 0 0
SMALL
GASTEIGER

@<TRIPOS>ATOM
      1 O         137.7343  138.3797  167.5054 O.2     1  UNL1       -0.2258
      2 C         138.4202  139.2899  166.5301 C.2     1  UNL1        0.4087
      3 O         138.0174  139.5176  165.1032 O.3     1  UNL1       -0.4398
      4 C         138.9775  140.5006  164.5017 C.3     1  UNL1        0.1561
      5 C         137.9151  140.0277  163.5544 C.3     1  UNL1        0.0425
      6 C         137.8845  140.5408  162.1452 C.3     1  UNL1        0.0160
      7 C         138.9162  141.5268  161.6834 C.3     1  UNL1        0.1122
      8 C         139.9787  141.9997  162.6308 C.3     1  UNL1        0.0160
      9 C         140.0093  141.4866  164.0399 C.3     1  UNL1        0.0425
     10 C         139.9738  140.8805  165.5569 C.3     1  UNL1        0.1415
     11 N         139.6293  140.1322  166.8105 N.am    1  UNL1       -0.2193
     12 C         138.8856  142.0399  160.2742 C.2     1  UNL1        0.3506
     13 N         139.5557  143.2854  159.7745 N.2     1  UNL1       -0.0350
     14 C         139.2637  143.4128  158.3088 C.2     1  UNL1        0.2348
     15 C         139.6624  144.4404  157.2915 C.2     1  UNL1        0.0869
     16 C         139.2104  144.3013  155.8679 C.2     1  UNL1        0.1468
     17 C         138.3598  143.1346  155.4617 C.2     1  UNL1        0.0200
     18 C         137.9611  142.1069  156.4790 C.3     1  UNL1        0.1068
     19 C         138.4130  142.2460  157.9025 C.2     1  UNL1        0.2176
     20 N         138.1793  141.3975  159.1172 N.2     1  UNL1       -0.0389
     21 O         139.6092  145.3290  154.8507 O.2     1  UNL1       -0.4047
     22 C         139.1687  146.7539  155.0115 C.3     1  UNL1        0.5753
     23 F         138.7281  148.1787  155.1724 F       1  UNL1       -0.1328
     24 F         137.7384  146.3290  154.8582 F       1  UNL1       -0.1328
     25 F         140.5990  147.1788  155.1649 F       1  UNL1       -0.1328
     26 C         140.3648  140.2122  168.1153 C.ar    1  UNL1        0.0845
     27 C         139.6608  140.7069  169.3440 C.ar    1  UNL1        0.0173
     28 C         140.3963  140.7869  170.6488 C.ar    1  UNL1        0.0014
     29 C         141.8358  140.3722  170.7250 C.ar    1  UNL1        0.0024
     30 C         142.5399  139.8776  169.4963 C.ar    1  UNL1        0.0309
     31 C         141.8043  139.7976  168.1915 C.ar    1  UNL1        0.1538
     32 F         142.5084  139.3029  166.9627 F       1  UNL1       -0.2029
@<TRIPOS>BOND
     1     1     2    2
     2     2     3    1
     3     3     4    1
     4     4     5    1
     5     5     6    1
     6     6     7    1
     7     7    12    1
     8    12    13    2
     9    13    14    1
    10    14    15    2
    11    15    16    1
    12    16    21    1
    13    21    22    1
    14    22    23    1
    15    22    24    1
    16    22    25    1
    17    16    17    2
    18    17    18    1
    19    18    19    1
    20    19    20    2
    21     7     8    1
    22     8     9    1
    23     4    10    1
    24    10    11    1
    25    11    26    1
    26    26    27   ar
    27    27    28   ar
    28    28    29   ar
    29    29    30   ar
    30    30    31   ar
    31    31    32    1
    32    11     2   am
    33    31    26   ar
    34     9     4    1
    35    20    12    1
    36    19    14    1
@<TRIPOS>MOLECULE
*****
 32 36 0 0 0
SMALL
GASTEIGER

@<TRIPOS>ATOM
      1 O         145.3517  139.2236  155.4927 O.2     1  UNL1       -0.2258
      2 C         145.0564  140.2629  156.5332 C.2     1  UNL1        0.4087
      3 O         144.4379  140.0144  157.8770 O.3     1  UNL1       -0.4398
      4 C         144.3269  141.3312  158.5869 C.3     1  UNL1        0.1561
      5 C         143.8110  140.1660  159.3782 C.3     1  UNL1        0.0425
      6 C         143.2488  140.3825  160.7519 C.3     1  UNL1        0.0160
      7 C         143.2027  141.7640  161.3343 C.3     1  UNL1        0.1122
      8 C         143.7186  142.9292  160.5430 C.3     1  UNL1        0.0160
      9 C         144.2807  142.7127  159.1693 C.3     1  UNL1        0.0425
     10 C         144.8768  142.3935  157.6818 C.3     1  UNL1        0.1415
     11 N         145.3276  141.7333  156.4125 N.am    1  UNL1       -0.2193
     12 C         142.6405  141.9804  162.7081 C.2     1  UNL1        0.3506
     13 N         143.3476  141.7093  164.0029 N.2     1  UNL1       -0.0350
     14 C         142.4167  142.0672  165.1233 C.2     1  UNL1        0.2348
     15 C         142.5711  142.0085  166.6141 C.2     1  UNL1        0.0869
     16 C         141.4429  142.4421  167.5026 C.2     1  UNL1        0.1468
     17 C         140.1605  142.9345  166.9003 C.2     1  UNL1        0.0200
     18 C         140.0061  142.9933  165.4094 C.3     1  UNL1        0.1068
     19 C         141.1342  142.5597  164.5209 C.2     1  UNL1        0.2176
     20 N         141.2725  142.5060  163.0283 N.2     1  UNL1       -0.0389
     21 O         141.5973  142.3833  168.9935 O.2     1  UNL1       -0.4047
     22 C         140.4663  142.8094  169.8820 C.3     1  UNL1        0.5753
     23 F         139.3354  143.2355  170.7705 F       1  UNL1       -0.1328
     24 F         139.9048  141.4194  169.8339 F       1  UNL1       -0.1328
     25 F         141.0278  144.1995  169.9301 F       1  UNL1       -0.1328
     26 C         145.9418  142.4225  155.2303 C.ar    1  UNL1        0.0845
     27 C         145.0638  143.0290  154.1762 C.ar    1  UNL1        0.0173
     28 C         145.6780  143.7182  152.9939 C.ar    1  UNL1        0.0014
     29 C         147.1702  143.8008  152.8657 C.ar    1  UNL1        0.0024
     30 C         148.0483  143.1942  153.9199 C.ar    1  UNL1        0.0309
     31 C         147.4340  142.5051  155.1021 C.ar    1  UNL1        0.1538
     32 F         148.3121  141.8985  156.1563 F       1  UNL1       -0.2029
@<TRIPOS>BOND
     1     1     2    2
     2     2     3    1
     3     3     4    1
     4     4     5    1
     5     5     6    1
     6     6     7    1
     7     7    12    1
     8    12    13    2
     9    13    14    1
    10    14    15    2
    11    15    16    1
    12    16    21    1
    13    21    22    1
    14    22    23    1
    15    22    24    1
    16    22    25    1
    17    16    17    2
    18    17    18    1
    19    18    19    1
    20    19    20    2
    21     7     8    1
    22     8     9    1
    23     4    10    1
    24    10    11    1
    25    11    26    1
    26    26    27   ar
    27    27    28   ar
    28    28    29   ar
    29    29    30   ar
    30    30    31   ar
    31    31    32    1
    32    11     2   am
    33    31    26   ar
    34     9     4    1
    35    20    12    1
    36    19    14    1
@<TRIPOS>MOLECULE
*****
 32 36 0 0 0
SMALL
GASTEIGER

@<TRIPOS>ATOM
      1 O         138.4903  139.3658  168.2950 O.2     1  UNL1       -0.2258
      2 C         139.3054  139.6488  167.0681 C.2     1  UNL1        0.4087
      3 O         139.0927  139.0479  165.7102 O.3     1  UNL1       -0.4398
      4 C         140.1323  139.6101  164.7864 C.3     1  UNL1        0.1561
      5 C         139.1966  138.6374  164.1321 C.3     1  UNL1        0.0425
      6 C         139.3534  138.3090  162.6770 C.3     1  UNL1        0.0160
      7 C         140.4460  138.9532  161.8762 C.3     1  UNL1        0.1122
      8 C         141.3817  139.9260  162.5305 C.3     1  UNL1        0.0160
      9 C         141.2248  140.2544  163.9857 C.3     1  UNL1        0.0425
     10 C         140.9875  140.5585  165.5734 C.3     1  UNL1        0.1415
     11 N         140.4765  140.5825  166.9835 N.am    1  UNL1       -0.2193
     12 C         140.6028  138.6247  160.4210 C.2     1  UNL1        0.3506
     13 N         141.8111  138.0073  159.7817 N.2     1  UNL1       -0.0350
     14 C         141.5339  137.8570  158.3152 C.2     1  UNL1        0.2348
     15 C         142.3595  137.3103  157.1885 C.2     1  UNL1        0.0869
     16 C         141.8054  137.2881  155.7947 C.2     1  UNL1        0.1468
     17 C         140.4257  137.8126  155.5277 C.2     1  UNL1        0.0200
     18 C         139.6001  138.3594  156.6544 C.3     1  UNL1        0.1068
     19 C         140.1541  138.3816  158.0481 C.2     1  UNL1        0.2176
     20 N         139.5787  138.8560  159.3496 N.2     1  UNL1       -0.0389
     21 O         142.6310  136.7413  154.6681 O.2     1  UNL1       -0.4047
     22 C         142.9749  135.2817  154.6299 C.3     1  UNL1        0.5753
     23 F         143.3189  133.8222  154.5917 F       1  UNL1       -0.1328
     24 F         144.3022  135.5780  155.2627 F       1  UNL1       -0.1328
     25 F         141.6477  134.9855  153.9971 F       1  UNL1       -0.1328
     26 C         141.0379  141.3969  168.1110 C.ar    1  UNL1        0.0845
     27 C         140.3500  142.6591  168.5395 C.ar    1  UNL1        0.0173
     28 C         140.9115  143.4736  169.6670 C.ar    1  UNL1        0.0014
     29 C         142.1608  143.0259  170.3662 C.ar    1  UNL1        0.0024
     30 C         142.8487  141.7636  169.9377 C.ar    1  UNL1        0.0309
     31 C         142.2872  140.9492  168.8101 C.ar    1  UNL1        0.1538
     32 F         142.9751  139.6869  168.3817 F       1  UNL1       -0.2029
@<TRIPOS>BOND
     1     1     2    2
     2     2     3    1
     3     3     4    1
     4     4     5    1
     5     5     6    1
     6     6     7    1
     7     7    12    1
     8    12    13    2
     9    13    14    1
    10    14    15    2
    11    15    16    1
    12    16    21    1
    13    21    22    1
    14    22    23    1
    15    22    24    1
    16    22    25    1
    17    16    17    2
    18    17    18    1
    19    18    19    1
    20    19    20    2
    21     7     8    1
    22     8     9    1
    23     4    10    1
    24    10    11    1
    25    11    26    1
    26    26    27   ar
    27    27    28   ar
    28    28    29   ar
    29    29    30   ar
    30    30    31   ar
    31    31    32    1
    32    11     2   am
    33    31    26   ar
    34     9     4    1
    35    20    12    1
    36    19    14    1
@<TRIPOS>MOLECULE
*****
 32 36 0 0 0
SMALL
GASTEIGER

@<TRIPOS>ATOM
      1 O         143.6668  138.9499  155.4588 O.2     1  UNL1       -0.2258
      2 C         143.3146  138.5332  156.8560 C.2     1  UNL1        0.4087
      3 O         143.4951  139.3599  158.0947 O.3     1  UNL1       -0.4398
      4 C         143.0121  138.5542  159.2642 C.3     1  UNL1        0.1561
      5 C         143.5253  139.9150  159.6311 C.3     1  UNL1        0.0425
      6 C         143.5220  140.3564  161.0646 C.3     1  UNL1        0.0160
      7 C         143.0054  139.4370  162.1313 C.3     1  UNL1        0.1122
      8 C         142.4922  138.0761  161.7644 C.3     1  UNL1        0.0160
      9 C         142.4955  137.6347  160.3308 C.3     1  UNL1        0.0425
     10 C         142.5331  137.2296  158.7483 C.3     1  UNL1        0.1415
     11 N         142.7200  137.2166  157.2600 N.am    1  UNL1       -0.2193
     12 C         143.0020  139.8784  163.5649 C.2     1  UNL1        0.3506
     13 N         142.8778  138.9839  164.7626 N.2     1  UNL1       -0.0350
     14 C         142.9213  139.8446  165.9903 C.2     1  UNL1        0.2348
     15 C         142.8429  139.5137  167.4513 C.2     1  UNL1        0.0869
     16 C         142.9155  140.6093  168.4734 C.2     1  UNL1        0.1468
     17 C         143.0666  142.0356  168.0345 C.2     1  UNL1        0.0200
     18 C         143.1451  142.3665  166.5735 C.3     1  UNL1        0.1068
     19 C         143.0724  141.2710  165.5515 C.2     1  UNL1        0.2176
     20 N         143.1223  141.2919  164.0524 N.2     1  UNL1       -0.0389
     21 O         142.8371  140.2784  169.9343 O.2     1  UNL1       -0.4047
     22 C         141.5852  140.5770  170.7048 C.3     1  UNL1        0.5753
     23 F         140.3333  140.8757  171.4752 F       1  UNL1       -0.1328
     24 F         142.2020  141.8454  171.2153 F       1  UNL1       -0.1328
     25 F         140.9683  139.3087  170.1942 F       1  UNL1       -0.1328
     26 C         142.3733  136.0857  156.3378 C.ar    1  UNL1        0.0845
     27 C         141.5739  136.3487  155.0961 C.ar    1  UNL1        0.0173
     28 C         141.2271  135.2177  154.1738 C.ar    1  UNL1        0.0014
     29 C         141.6798  133.8237  154.4931 C.ar    1  UNL1        0.0024
     30 C         142.4792  133.5607  155.7349 C.ar    1  UNL1        0.0309
     31 C         142.8259  134.6917  156.6571 C.ar    1  UNL1        0.1538
     32 F         143.6253  134.4287  157.8989 F       1  UNL1       -0.2029
@<TRIPOS>BOND
     1     1     2    2
     2     2     3    1
     3     3     4    1
     4     4     5    1
     5     5     6    1
     6     6     7    1
     7     7    12    1
     8    12    13    2
     9    13    14    1
    10    14    15    2
    11    15    16    1
    12    16    21    1
    13    21    22    1
    14    22    23    1
    15    22    24    1
    16    22    25    1
    17    16    17    2
    18    17    18    1
    19    18    19    1
    20    19    20    2
    21     7     8    1
    22     8     9    1
    23     4    10    1
    24    10    11    1
    25    11    26    1
    26    26    27   ar
    27    27    28   ar
    28    28    29   ar
    29    29    30   ar
    30    30    31   ar
    31    31    32    1
    32    11     2   am
    33    31    26   ar
    34     9     4    1
    35    20    12    1
    36    19    14    1
@<TRIPOS>MOLECULE
*****
 32 36 0 0 0
SMALL
GASTEIGER

@<TRIPOS>ATOM
      1 O         137.6976  138.7796  168.0596 O.2     1  UNL1       -0.2258
      2 C         138.6363  139.1341  166.9446 C.2     1  UNL1        0.4087
      3 O         138.5661  138.6216  165.5365 O.3     1  UNL1       -0.4398
      4 C         139.6964  139.2340  164.7635 C.3     1  UNL1        0.1561
      5 C         138.8338  138.3109  163.9549 C.3     1  UNL1        0.0425
      6 C         139.1414  138.0740  162.5060 C.3     1  UNL1        0.0160
      7 C         140.3115  138.7602  161.8658 C.3     1  UNL1        0.1122
      8 C         141.1741  139.6833  162.6743 C.3     1  UNL1        0.0160
      9 C         140.8665  139.9202  164.1232 C.3     1  UNL1        0.0425
     10 C         140.4650  140.1250  165.6938 C.3     1  UNL1        0.1415
     11 N         139.8099  140.0632  167.0417 N.am    1  UNL1       -0.2193
     12 C         140.6191  138.5233  160.4168 C.2     1  UNL1        0.3506
     13 N         139.6137  138.4045  159.3100 N.2     1  UNL1       -0.0350
     14 C         140.3593  138.1713  158.0295 C.2     1  UNL1        0.2348
     15 C         139.8925  137.9788  156.6171 C.2     1  UNL1        0.0869
     16 C         140.8921  137.7609  155.5200 C.2     1  UNL1        0.1468
     17 C         142.3583  137.7356  155.8354 C.2     1  UNL1        0.0200
     18 C         142.8250  137.9281  157.2479 C.3     1  UNL1        0.1068
     19 C         141.8256  138.1460  158.3449 C.2     1  UNL1        0.2176
     20 N         141.9861  138.3635  159.8204 N.2     1  UNL1       -0.0389
     21 O         140.4253  137.5684  154.1075 O.2     1  UNL1       -0.4047
     22 C         141.1965  136.6794  153.1774 C.3     1  UNL1        0.5753
     23 F         141.9676  135.7905  152.2473 F       1  UNL1       -0.1328
     24 F         141.7010  137.8859  152.4426 F       1  UNL1       -0.1328
     25 F         140.6920  135.4730  153.9121 F       1  UNL1       -0.1328
     26 C         140.2508  140.8010  168.2710 C.ar    1  UNL1        0.0845
     27 C         140.5546  140.0454  169.5306 C.ar    1  UNL1        0.0173
     28 C         140.9956  140.7833  170.7599 C.ar    1  UNL1        0.0014
     29 C         141.1328  142.2767  170.7296 C.ar    1  UNL1        0.0024
     30 C         140.8290  143.0323  169.4698 C.ar    1  UNL1        0.0309
     31 C         140.3880  142.2944  168.2406 C.ar    1  UNL1        0.1538
     32 F         140.0842  143.0501  166.9809 F       1  UNL1       -0.2029
@<TRIPOS>BOND
     1     1     2    2
     2     2     3    1
     3     3     4    1
     4     4     5    1
     5     5     6    1
     6     6     7    1
     7     7    12    1
     8    12    13    2
     9    13    14    1
    10    14    15    2
    11    15    16    1
    12    16    21    1
    13    21    22    1
    14    22    23    1
    15    22    24    1
    16    22    25    1
    17    16    17    2
    18    17    18    1
    19    18    19    1
    20    19    20    2
    21     7     8    1
    22     8     9    1
    23     4    10    1
    24    10    11    1
    25    11    26    1
    26    26    27   ar
    27    27    28   ar
    28    28    29   ar
    29    29    30   ar
    30    30    31   ar
    31    31    32    1
    32    11     2   am
    33    31    26   ar
    34     9     4    1
    35    20    12    1
    36    19    14    1
@<TRIPOS>MOLECULE
*****
 32 36 0 0 0
SMALL
GASTEIGER

@<TRIPOS>ATOM
      1 O         140.2758  143.3584  165.9261 O.2     1  UNL1       -0.2258
      2 C         141.3405  142.6951  165.1037 C.2     1  UNL1        0.4087
      3 O         141.5181  142.8260  163.6200 O.3     1  UNL1       -0.4398
      4 C         142.7021  141.9963  163.2199 C.3     1  UNL1        0.1561
      5 C         142.0397  142.7057  162.0762 C.3     1  UNL1        0.0425
      6 C         142.5754  142.5474  160.6842 C.3     1  UNL1        0.0160
      7 C         143.7735  141.6798  160.4358 C.3     1  UNL1        0.1122
      8 C         144.4359  140.9704  161.5794 C.3     1  UNL1        0.0160
      9 C         143.9002  141.1287  162.9715 C.3     1  UNL1        0.0425
     10 C         143.2562  141.3527  164.4564 C.3     1  UNL1        0.1415
     11 N         142.4147  141.7846  165.6206 N.am    1  UNL1       -0.2193
     12 C         144.3093  141.5215  159.0436 C.2     1  UNL1        0.3506
     13 N         145.1072  142.5401  158.2848 N.2     1  UNL1       -0.0350
     14 C         145.4322  141.9650  156.9381 C.2     1  UNL1        0.2348
     15 C         146.1947  142.5149  155.7693 C.2     1  UNL1        0.0869
     16 C         146.3600  141.6908  154.5269 C.2     1  UNL1        0.1468
     17 C         145.7630  140.3167  154.4534 C.2     1  UNL1        0.0200
     18 C         145.0005  139.7667  155.6222 C.3     1  UNL1        0.1068
     19 C         144.8351  140.5908  156.8646 C.2     1  UNL1        0.2176
     20 N         144.1411  140.3168  158.1658 N.2     1  UNL1       -0.0389
     21 O         147.1225  142.2407  153.3581 O.2     1  UNL1       -0.4047
     22 C         148.5055  142.7873  153.5549 C.3     1  UNL1        0.5753
     23 F         149.8884  143.3338  153.7517 F       1  UNL1       -0.1328
     24 F         147.9920  144.1750  153.3091 F       1  UNL1       -0.1328
     25 F         149.0190  141.3995  153.8008 F       1  UNL1       -0.1328
     26 C         142.6127  141.3775  167.0506 C.ar    1  UNL1        0.0845
     27 C         143.1813  142.3543  168.0367 C.ar    1  UNL1        0.0173
     28 C         143.3792  141.9472  169.4668 C.ar    1  UNL1        0.0014
     29 C         143.0086  140.5632  169.9107 C.ar    1  UNL1        0.0024
     30 C         142.4399  139.5862  168.9246 C.ar    1  UNL1        0.0309
     31 C         142.2420  139.9935  167.4946 C.ar    1  UNL1        0.1538
     32 F         141.6734  139.0165  166.5084 F       1  UNL1       -0.2029
@<TRIPOS>BOND
     1     1     2    2
     2     2     3    1
     3     3     4    1
     4     4     5    1
     5     5     6    1
     6     6     7    1
     7     7    12    1
     8    12    13    2
     9    13    14    1
    10    14    15    2
    11    15    16    1
    12    16    21    1
    13    21    22    1
    14    22    23    1
    15    22    24    1
    16    22    25    1
    17    16    17    2
    18    17    18    1
    19    18    19    1
    20    19    20    2
    21     7     8    1
    22     8     9    1
    23     4    10    1
    24    10    11    1
    25    11    26    1
    26    26    27   ar
    27    27    28   ar
    28    28    29   ar
    29    29    30   ar
    30    30    31   ar
    31    31    32    1
    32    11     2   am
    33    31    26   ar
    34     9     4    1
    35    20    12    1
    36    19    14    1
