@<TRIPOS>MOLECULE
*****
 34 38 0 0 0
SMALL
GASTEIGER

@<TRIPOS>ATOM
      1 C         140.7986  140.6997  165.0193 C.3     1  UNL1        0.2322
      2 N         141.0245  141.6659  166.1442 N.2     1  UNL1       -0.0614
      3 C         140.1611  141.2457  167.2966 C.2     1  UNL1        0.3157
      4 N         140.0727  141.9311  168.6279 N.pl3   1  UNL1       -0.2464
      5 C         139.4016  140.0198  166.8840 C.ar    1  UNL1        0.1094
      6 C         138.4022  139.1672  167.6079 C.ar    1  UNL1        0.1470
      7 F         138.0082  139.5046  169.0154 F       1  UNL1       -0.2039
      8 C         137.7968  137.9771  166.9245 C.ar    1  UNL1        0.0299
      9 C         138.1908  137.6396  165.5171 C.ar    1  UNL1        0.0021
     10 C         139.1902  138.4922  164.7931 C.ar    1  UNL1        0.0008
     11 C         139.7956  139.6823  165.4765 C.ar    1  UNL1        0.0390
     12 H         140.6138  142.7343  168.8050 H       1  UNL1        0.2884
     13 H         139.4736  141.5777  169.3247 H       1  UNL1        0.2884
     14 N         142.3425  143.6240  162.8251 N.ar    1  UNL1       -0.2946
     15 C         141.3431  142.7714  163.5491 C.ar    1  UNL1        0.0786
     16 C         141.7981  141.5523  164.2953 C.ar    1  UNL1        0.0468
     17 C         143.2524  141.1860  164.3177 C.ar    1  UNL1        0.0023
     18 C         144.2518  142.0386  163.5937 C.ar    1  UNL1        0.0342
     19 C         145.7063  141.6722  163.6160 C.3     1  UNL1        0.0360
     20 C         143.7968  143.2576  162.8474 C.ar    1  UNL1        0.2568
     21 O         144.7963  144.1103  162.1234 O.2     1  UNL1       -0.2673
     22 C         140.6143  145.5316  162.4723 C.3     1  UNL1        0.0266
     23 C         141.8875  144.8431  162.0788 C.3     1  UNL1        0.1091
     24 C         140.7816  139.9117  163.7431 C.ar    1  UNL1        0.0303
     25 C         141.5568  138.6315  163.6417 C.ar    1  UNL1        0.0004
     26 C         141.5399  137.8435  162.3654 C.ar    1  UNL1        0.0005
     27 C         140.7477  138.3357  161.1906 C.ar    1  UNL1        0.0082
     28 C         139.9725  139.6159  161.2920 C.ar    1  UNL1        0.0415
     29 C         139.9895  140.4039  162.5682 C.ar    1  UNL1        0.0086
     30 C         139.1804  140.1081  160.1171 C.1     1  UNL1       -0.0644
     31 C         138.3882  140.6003  158.9424 C.1     1  UNL1       -0.0874
     32 C         137.5960  141.0925  157.7676 C.3     1  UNL1        0.0645
     33 C         136.5587  140.8573  156.7099 C.3     1  UNL1        0.0140
     34 C         137.2612  142.1801  156.7905 C.3     1  UNL1        0.0140
@<TRIPOS>BOND
     1    22    23    1
     2    23    14    1
     3    14    15   ar
     4    15    16   ar
     5     1    16    1
     6     1    24    1
     7    24    25   ar
     8    25    26   ar
     9    26    27   ar
    10    27    28   ar
    11    28    30    1
    12    30    31    3
    13    31    32    1
    14    32    33    1
    15    33    34    1
    16    28    29   ar
    17     1     2    1
    18     2     3    2
    19     3     4    1
    20     3     5    1
    21     5     6   ar
    22     6     7    1
    23     6     8   ar
    24     8     9   ar
    25     9    10   ar
    26    10    11   ar
    27    16    17   ar
    28    17    18   ar
    29    18    19    1
    30    18    20   ar
    31    20    21    2
    32    20    14   ar
    33    11     1    1
    34    29    24   ar
    35    11     5   ar
    36    34    32    1
    37     4    12    1
    38     4    13    1
@<TRIPOS>MOLECULE
*****
 34 38 0 0 0
SMALL
GASTEIGER

@<TRIPOS>ATOM
      1 C         141.9188  141.5860  161.0659 C.3     1  UNL1        0.2322
      2 N         141.2120  141.3510  159.7639 N.2     1  UNL1       -0.0614
      3 C         141.5622  139.9720  159.2887 C.2     1  UNL1        0.3157
      4 N         141.0748  139.3240  158.0268 N.pl3   1  UNL1       -0.2464
      5 C         142.4854  139.3547  160.2971 C.ar    1  UNL1        0.1094
      6 C         143.1538  138.0133  160.3570 C.ar    1  UNL1        0.1470
      7 F         142.9334  137.0157  159.2587 F       1  UNL1       -0.2039
      8 C         144.0426  137.6693  161.5153 C.ar    1  UNL1        0.0299
      9 C         144.2629  138.6668  162.6137 C.ar    1  UNL1        0.0021
     10 C         143.5945  140.0083  162.5538 C.ar    1  UNL1        0.0008
     11 C         142.7058  140.3523  161.3954 C.ar    1  UNL1        0.0390
     12 H         140.4675  139.8126  157.4253 H       1  UNL1        0.2884
     13 H         141.3622  138.4101  157.8000 H       1  UNL1        0.2884
     14 N         139.6810  144.7085  162.0618 N.ar    1  UNL1       -0.2946
     15 C         140.3494  143.3671  162.1217 C.ar    1  UNL1        0.0786
     16 C         141.2503  142.9275  161.0059 C.ar    1  UNL1        0.0468
     17 C         141.4828  143.8294  159.8301 C.ar    1  UNL1        0.0023
     18 C         140.8144  145.1708  159.7701 C.ar    1  UNL1        0.0342
     19 C         141.0469  146.0728  158.5943 C.3     1  UNL1        0.0360
     20 C         139.9135  145.6104  160.8860 C.ar    1  UNL1        0.2568
     21 O         139.2450  146.9520  160.8260 O.2     1  UNL1       -0.2673
     22 C         139.0876  144.7504  164.5908 C.3     1  UNL1        0.0266
     23 C         138.7800  145.1481  163.1776 C.3     1  UNL1        0.1091
     24 C         142.4858  142.1015  162.3553 C.ar    1  UNL1        0.0303
     25 C         143.7669  142.8818  162.3526 C.ar    1  UNL1        0.0004
     26 C         144.3339  143.3973  163.6421 C.ar    1  UNL1        0.0005
     27 C         143.6198  143.1324  164.9344 C.ar    1  UNL1        0.0082
     28 C         142.3387  142.3521  164.9372 C.ar    1  UNL1        0.0415
     29 C         141.7717  141.8366  163.6477 C.ar    1  UNL1        0.0086
     30 C         141.6247  142.0873  166.2294 C.1     1  UNL1       -0.0644
     31 C         140.9106  141.8223  167.5216 C.1     1  UNL1       -0.0874
     32 C         140.1965  141.5574  168.8139 C.3     1  UNL1        0.0645
     33 C         139.4051  140.6378  169.6960 C.3     1  UNL1        0.0140
     34 C         139.7511  142.0182  170.1701 C.3     1  UNL1        0.0140
@<TRIPOS>BOND
     1    22    23    1
     2    23    14    1
     3    14    15   ar
     4    15    16   ar
     5     1    16    1
     6     1    24    1
     7    24    25   ar
     8    25    26   ar
     9    26    27   ar
    10    27    28   ar
    11    28    30    1
    12    30    31    3
    13    31    32    1
    14    32    33    1
    15    33    34    1
    16    28    29   ar
    17     1     2    1
    18     2     3    2
    19     3     4    1
    20     3     5    1
    21     5     6   ar
    22     6     7    1
    23     6     8   ar
    24     8     9   ar
    25     9    10   ar
    26    10    11   ar
    27    16    17   ar
    28    17    18   ar
    29    18    19    1
    30    18    20   ar
    31    20    21    2
    32    20    14   ar
    33    11     1    1
    34    29    24   ar
    35    11     5   ar
    36    34    32    1
    37     4    12    1
    38     4    13    1
@<TRIPOS>MOLECULE
*****
 34 38 0 0 0
SMALL
GASTEIGER

@<TRIPOS>ATOM
      1 C         140.7701  141.8563  161.4282 C.3     1  UNL1        0.2322
      2 N         141.3778  142.6315  160.2970 N.2     1  UNL1       -0.0614
      3 C         141.0704  144.0838  160.5125 C.2     1  UNL1        0.3157
      4 N         141.4874  145.2151  159.6203 N.pl3   1  UNL1       -0.2464
      5 C         140.2726  144.2061  161.7769 C.ar    1  UNL1        0.1094
      6 C         139.6912  145.3931  162.4860 C.ar    1  UNL1        0.1470
      7 F         139.8768  146.7698  161.9201 F       1  UNL1       -0.2039
      8 C         138.9243  145.2035  163.7610 C.ar    1  UNL1        0.0299
      9 C         138.7387  143.8268  164.3270 C.ar    1  UNL1        0.0021
     10 C         139.3201  142.6397  163.6179 C.ar    1  UNL1        0.0008
     11 C         140.0870  142.8294  162.3429 C.ar    1  UNL1        0.0390
     12 H         142.0125  145.0333  158.8076 H       1  UNL1        0.2884
     13 H         141.2360  146.1395  159.8474 H       1  UNL1        0.2884
     14 N         141.4562  139.1231  158.6337 N.ar    1  UNL1       -0.2946
     15 C         140.8748  140.3101  159.3429 C.ar    1  UNL1        0.0786
     16 C         141.3515  140.6692  160.7191 C.ar    1  UNL1        0.0468
     17 C         142.4096  139.8412  161.3861 C.ar    1  UNL1        0.0023
     18 C         142.9910  138.6542  160.6769 C.ar    1  UNL1        0.0342
     19 C         144.0491  137.8262  161.3439 C.3     1  UNL1        0.0360
     20 C         142.5143  138.2952  159.3007 C.ar    1  UNL1        0.2568
     21 O         143.0957  137.1081  158.5916 O.2     1  UNL1       -0.2673
     22 C         139.9071  137.7302  157.0813 C.3     1  UNL1        0.0266
     23 C         140.9795  138.7641  157.2576 C.3     1  UNL1        0.1091
     24 C         140.2839  140.8329  162.4112 C.ar    1  UNL1        0.0303
     25 C         139.1904  139.8816  162.0245 C.ar    1  UNL1        0.0004
     26 C         138.7043  138.8582  163.0075 C.ar    1  UNL1        0.0005
     27 C         139.3116  138.7860  164.3771 C.ar    1  UNL1        0.0082
     28 C         140.4050  139.7372  164.7639 C.ar    1  UNL1        0.0415
     29 C         140.8912  140.7606  163.7809 C.ar    1  UNL1        0.0086
     30 C         141.0123  139.6650  166.1335 C.1     1  UNL1       -0.0644
     31 C         141.6196  139.5927  167.5031 C.1     1  UNL1       -0.0874
     32 C         142.2268  139.5205  168.8729 C.3     1  UNL1        0.0645
     33 C         142.6370  138.7170  170.0713 C.3     1  UNL1        0.0140
     34 C         142.8684  140.1988  170.0468 C.3     1  UNL1        0.0140
@<TRIPOS>BOND
     1    22    23    1
     2    23    14    1
     3    14    15   ar
     4    15    16   ar
     5     1    16    1
     6     1    24    1
     7    24    25   ar
     8    25    26   ar
     9    26    27   ar
    10    27    28   ar
    11    28    30    1
    12    30    31    3
    13    31    32    1
    14    32    33    1
    15    33    34    1
    16    28    29   ar
    17     1     2    1
    18     2     3    2
    19     3     4    1
    20     3     5    1
    21     5     6   ar
    22     6     7    1
    23     6     8   ar
    24     8     9   ar
    25     9    10   ar
    26    10    11   ar
    27    16    17   ar
    28    17    18   ar
    29    18    19    1
    30    18    20   ar
    31    20    21    2
    32    20    14   ar
    33    11     1    1
    34    29    24   ar
    35    11     5   ar
    36    34    32    1
    37     4    12    1
    38     4    13    1
@<TRIPOS>MOLECULE
*****
 34 38 0 0 0
SMALL
GASTEIGER

@<TRIPOS>ATOM
      1 C         140.6577  140.9334  165.0659 C.3     1  UNL1        0.2322
      2 N         140.7398  141.8573  166.2447 N.2     1  UNL1       -0.0614
      3 C         139.8918  141.2853  167.3418 C.2     1  UNL1        0.3157
      4 N         139.6861  141.8854  168.7011 N.pl3   1  UNL1       -0.2464
      5 C         139.2856  140.0079  166.8411 C.ar    1  UNL1        0.1094
      6 C         138.3637  139.0148  167.4842 C.ar    1  UNL1        0.1470
      7 F         137.8903  139.2323  168.8909 F       1  UNL1       -0.2039
      8 C         137.9152  137.8040  166.7207 C.ar    1  UNL1        0.0299
      9 C         138.3886  137.5865  165.3141 C.ar    1  UNL1        0.0021
     10 C         139.3104  138.5797  164.6710 C.ar    1  UNL1        0.0008
     11 C         139.7589  139.7904  165.4345 C.ar    1  UNL1        0.0390
     12 H         140.1294  142.7320  168.9376 H       1  UNL1        0.2884
     13 H         139.1077  141.4327  169.3566 H       1  UNL1        0.2884
     14 N         143.9606  142.6037  163.6338 N.ar    1  UNL1       -0.2946
     15 C         143.0387  141.6105  164.2769 C.ar    1  UNL1        0.0786
     16 C         141.5797  141.9266  164.4227 C.ar    1  UNL1        0.0468
     17 C         141.0425  143.2359  163.9255 C.ar    1  UNL1        0.0023
     18 C         141.9645  144.2290  163.2824 C.ar    1  UNL1        0.0342
     19 C         141.4273  145.5384  162.7851 C.3     1  UNL1        0.0360
     20 C         143.4235  143.9130  163.1366 C.ar    1  UNL1        0.2568
     21 O         144.3454  144.9062  162.4934 O.2     1  UNL1       -0.2673
     22 C         145.9419  140.9456  163.9075 C.3     1  UNL1        0.0266
     23 C         145.4197  142.2876  163.4880 C.3     1  UNL1        0.1091
     24 C         140.7683  140.2171  163.7526 C.ar    1  UNL1        0.0303
     25 C         141.6933  139.0444  163.6135 C.ar    1  UNL1        0.0004
     26 C         141.8039  138.3281  162.3001 C.ar    1  UNL1        0.0005
     27 C         140.9896  138.7845  161.1260 C.ar    1  UNL1        0.0082
     28 C         140.0646  139.9571  161.2652 C.ar    1  UNL1        0.0415
     29 C         139.9540  140.6734  162.5784 C.ar    1  UNL1        0.0086
     30 C         139.2503  140.4135  160.0910 C.1     1  UNL1       -0.0644
     31 C         138.4360  140.8700  158.9170 C.1     1  UNL1       -0.0874
     32 C         137.6216  141.3264  157.7429 C.3     1  UNL1        0.0645
     33 C         137.2168  142.4064  156.7839 C.3     1  UNL1        0.0140
     34 C         136.6159  141.0370  156.6683 C.3     1  UNL1        0.0140
@<TRIPOS>BOND
     1    22    23    1
     2    23    14    1
     3    14    15   ar
     4    15    16   ar
     5     1    16    1
     6     1    24    1
     7    24    25   ar
     8    25    26   ar
     9    26    27   ar
    10    27    28   ar
    11    28    30    1
    12    30    31    3
    13    31    32    1
    14    32    33    1
    15    33    34    1
    16    28    29   ar
    17     1     2    1
    18     2     3    2
    19     3     4    1
    20     3     5    1
    21     5     6   ar
    22     6     7    1
    23     6     8   ar
    24     8     9   ar
    25     9    10   ar
    26    10    11   ar
    27    16    17   ar
    28    17    18   ar
    29    18    19    1
    30    18    20   ar
    31    20    21    2
    32    20    14   ar
    33    11     1    1
    34    29    24   ar
    35    11     5   ar
    36    34    32    1
    37     4    12    1
    38     4    13    1
@<TRIPOS>MOLECULE
*****
 34 38 0 0 0
SMALL
GASTEIGER

@<TRIPOS>ATOM
      1 C         141.7643  140.9164  162.1055 C.3     1  UNL1        0.2322
      2 N         142.6020  141.7762  163.0049 N.2     1  UNL1       -0.0614
      3 C         142.8526  141.0146  164.2726 C.2     1  UNL1        0.3157
      4 N         143.6466  141.4986  165.4496 N.pl3   1  UNL1       -0.2464
      5 C         142.1697  139.6841  164.1568 C.ar    1  UNL1        0.1094
      6 C         142.0734  138.5200  165.0978 C.ar    1  UNL1        0.1470
      7 F         142.7461  138.5808  166.4372 F       1  UNL1       -0.2039
      8 C         141.3046  137.2953  164.6995 C.ar    1  UNL1        0.0299
      9 C         140.6319  137.2346  163.3601 C.ar    1  UNL1        0.0021
     10 C         140.7282  138.3986  162.4191 C.ar    1  UNL1        0.0008
     11 C         141.4971  139.6234  162.8174 C.ar    1  UNL1        0.0390
     12 H         144.0591  142.3923  165.4312 H       1  UNL1        0.2884
     13 H         143.7553  140.9224  166.2405 H       1  UNL1        0.2884
     14 N         141.1000  144.4568  160.4397 N.ar    1  UNL1       -0.2946
     15 C         141.0037  143.2926  161.3807 C.ar    1  UNL1        0.0786
     16 C         141.8605  142.0806  161.1644 C.ar    1  UNL1        0.0468
     17 C         142.8136  142.0327  160.0072 C.ar    1  UNL1        0.0023
     18 C         142.9098  143.1968  159.0662 C.ar    1  UNL1        0.0342
     19 C         143.8629  143.1489  157.9088 C.3     1  UNL1        0.0360
     20 C         142.0530  144.4088  159.2825 C.ar    1  UNL1        0.2568
     21 O         142.1493  145.5730  158.3414 O.2     1  UNL1       -0.2673
     22 C         139.8680  146.0834  162.0479 C.3     1  UNL1        0.0266
     23 C         140.2431  145.6688  160.6560 C.3     1  UNL1        0.1091
     24 C         140.9466  140.3000  161.0094 C.ar    1  UNL1        0.0303
     25 C         139.4725  140.5665  160.9328 C.ar    1  UNL1        0.0004
     26 C         138.6548  139.9500  159.8366 C.ar    1  UNL1        0.0005
     27 C         139.3114  139.0670  158.8171 C.ar    1  UNL1        0.0082
     28 C         140.7855  138.8005  158.8938 C.ar    1  UNL1        0.0415
     29 C         141.6031  139.4170  159.9899 C.ar    1  UNL1        0.0086
     30 C         141.4420  137.9176  157.8743 C.1     1  UNL1       -0.0644
     31 C         142.0985  137.0346  156.8548 C.1     1  UNL1       -0.0874
     32 C         142.7550  136.1516  155.8353 C.3     1  UNL1        0.0645
     33 C         142.6869  135.3710  154.5563 C.3     1  UNL1        0.0140
     34 C         143.9601  135.4029  155.3485 C.3     1  UNL1        0.0140
@<TRIPOS>BOND
     1    22    23    1
     2    23    14    1
     3    14    15   ar
     4    15    16   ar
     5     1    16    1
     6     1    24    1
     7    24    25   ar
     8    25    26   ar
     9    26    27   ar
    10    27    28   ar
    11    28    30    1
    12    30    31    3
    13    31    32    1
    14    32    33    1
    15    33    34    1
    16    28    29   ar
    17     1     2    1
    18     2     3    2
    19     3     4    1
    20     3     5    1
    21     5     6   ar
    22     6     7    1
    23     6     8   ar
    24     8     9   ar
    25     9    10   ar
    26    10    11   ar
    27    16    17   ar
    28    17    18   ar
    29    18    19    1
    30    18    20   ar
    31    20    21    2
    32    20    14   ar
    33    11     1    1
    34    29    24   ar
    35    11     5   ar
    36    34    32    1
    37     4    12    1
    38     4    13    1
@<TRIPOS>MOLECULE
*****
 34 38 0 0 0
SMALL
GASTEIGER

@<TRIPOS>ATOM
      1 C         142.5866  139.9279  159.0002 C.3     1  UNL1        0.2322
      2 N         142.8515  140.8738  160.1338 N.2     1  UNL1       -0.0614
      3 C         143.9846  141.7714  159.7333 C.2     1  UNL1        0.3157
      4 N         144.5782  142.8678  160.5674 N.pl3   1  UNL1       -0.2464
      5 C         144.4199  141.3803  158.3521 C.ar    1  UNL1        0.1094
      6 C         145.4915  141.9144  157.4486 C.ar    1  UNL1        0.1470
      7 F         146.3555  143.0537  157.9016 F       1  UNL1       -0.2039
      8 C         145.6989  141.3091  156.0919 C.ar    1  UNL1        0.0299
      9 C         144.8349  140.1697  155.6389 C.ar    1  UNL1        0.0021
     10 C         143.7634  139.6356  156.5425 C.ar    1  UNL1        0.0008
     11 C         143.5559  140.2409  157.8991 C.ar    1  UNL1        0.0390
     12 H         144.2220  143.0496  161.4670 H       1  UNL1        0.2884
     13 H         145.3239  143.4054  160.2152 H       1  UNL1        0.2884
     14 N         140.8048  137.9455  161.9405 N.ar    1  UNL1       -0.2946
     15 C         141.8763  138.4795  161.0369 C.ar    1  UNL1        0.0786
     16 C         141.5150  139.3938  159.9039 C.ar    1  UNL1        0.0468
     17 C         140.0823  139.7740  159.6746 C.ar    1  UNL1        0.0023
     18 C         139.0108  139.2400  160.5783 C.ar    1  UNL1        0.0342
     19 C         137.5779  139.6202  160.3491 C.3     1  UNL1        0.0360
     20 C         139.3721  138.3257  161.7112 C.ar    1  UNL1        0.2568
     21 O         138.3005  137.7916  162.6149 O.2     1  UNL1       -0.2673
     22 C         141.3729  137.5887  164.4505 C.3     1  UNL1        0.0266
     23 C         141.1661  137.0312  163.0734 C.3     1  UNL1        0.1091
     24 C         142.0976  138.8703  158.0556 C.ar    1  UNL1        0.0303
     25 C         140.9442  139.1572  157.1405 C.ar    1  UNL1        0.0004
     26 C         140.4552  138.0996  156.1958 C.ar    1  UNL1        0.0005
     27 C         141.1197  136.7551  156.1662 C.ar    1  UNL1        0.0082
     28 C         142.2731  136.4682  157.0813 C.ar    1  UNL1        0.0415
     29 C         142.7621  137.5258  158.0259 C.ar    1  UNL1        0.0086
     30 C         142.9375  135.1237  157.0517 C.1     1  UNL1       -0.0644
     31 C         143.6020  133.7793  157.0221 C.1     1  UNL1       -0.0874
     32 C         144.2666  132.4348  156.9925 C.3     1  UNL1        0.0645
     33 C         144.6499  131.1598  157.6833 C.3     1  UNL1        0.0140
     34 C         145.0341  131.3813  156.2505 C.3     1  UNL1        0.0140
@<TRIPOS>BOND
     1    22    23    1
     2    23    14    1
     3    14    15   ar
     4    15    16   ar
     5     1    16    1
     6     1    24    1
     7    24    25   ar
     8    25    26   ar
     9    26    27   ar
    10    27    28   ar
    11    28    30    1
    12    30    31    3
    13    31    32    1
    14    32    33    1
    15    33    34    1
    16    28    29   ar
    17     1     2    1
    18     2     3    2
    19     3     4    1
    20     3     5    1
    21     5     6   ar
    22     6     7    1
    23     6     8   ar
    24     8     9   ar
    25     9    10   ar
    26    10    11   ar
    27    16    17   ar
    28    17    18   ar
    29    18    19    1
    30    18    20   ar
    31    20    21    2
    32    20    14   ar
    33    11     1    1
    34    29    24   ar
    35    11     5   ar
    36    34    32    1
    37     4    12    1
    38     4    13    1
@<TRIPOS>MOLECULE
*****
 34 38 0 0 0
SMALL
GASTEIGER

@<TRIPOS>ATOM
      1 C         141.6073  140.9908  162.3536 C.3     1  UNL1        0.2322
      2 N         142.3937  141.8464  163.3020 N.2     1  UNL1       -0.0614
      3 C         142.6829  141.0332  164.5288 C.2     1  UNL1        0.3157
      4 N         143.4458  141.4968  165.7343 N.pl3   1  UNL1       -0.2464
      5 C         142.0752  139.6751  164.3386 C.ar    1  UNL1        0.1094
      6 C         142.0413  138.4589  165.2159 C.ar    1  UNL1        0.1470
      7 F         142.7060  138.4851  166.5603 F       1  UNL1       -0.2039
      8 C         141.3427  137.2164  164.7488 C.ar    1  UNL1        0.0299
      9 C         140.6779  137.1902  163.4044 C.ar    1  UNL1        0.0021
     10 C         140.7118  138.4064  162.5271 C.ar    1  UNL1        0.0008
     11 C         141.4105  139.6488  162.9942 C.ar    1  UNL1        0.0390
     12 H         143.8080  142.4117  165.7657 H       1  UNL1        0.2884
     13 H         143.5842  140.8862  166.4940 H       1  UNL1        0.2884
     14 N         142.5280  143.4344  159.3650 N.ar    1  UNL1       -0.2946
     15 C         142.4941  142.2182  160.2423 C.ar    1  UNL1        0.0786
     16 C         141.6413  142.2070  161.4763 C.ar    1  UNL1        0.0468
     17 C         140.8224  143.4121  161.8329 C.ar    1  UNL1        0.0023
     18 C         140.8564  144.6283  160.9556 C.ar    1  UNL1        0.0342
     19 C         140.0375  145.8335  161.3122 C.3     1  UNL1        0.0360
     20 C         141.7092  144.6394  159.7217 C.ar    1  UNL1        0.2568
     21 O         141.7431  145.8557  158.8444 O.2     1  UNL1       -0.2673
     22 C         144.6034  142.5796  158.0565 C.3     1  UNL1        0.0266
     23 C         143.3808  143.4455  158.1311 C.3     1  UNL1        0.1091
     24 C         140.8280  140.3894  161.2217 C.ar    1  UNL1        0.0303
     25 C         139.3504  140.6262  161.1194 C.ar    1  UNL1        0.0004
     26 C         138.5711  140.0248  159.9875 C.ar    1  UNL1        0.0005
     27 C         139.2694  139.1867  158.9580 C.ar    1  UNL1        0.0082
     28 C         140.7471  138.9500  159.0603 C.ar    1  UNL1        0.0415
     29 C         141.5264  139.5513  160.1921 C.ar    1  UNL1        0.0086
     30 C         141.4455  138.1120  158.0308 C.1     1  UNL1       -0.0644
     31 C         142.1438  137.2739  157.0013 C.1     1  UNL1       -0.0874
     32 C         142.8422  136.4358  155.9718 C.3     1  UNL1        0.0645
     33 C         142.7943  135.5991  154.7277 C.3     1  UNL1        0.0140
     34 C         144.0996  135.8209  155.4326 C.3     1  UNL1        0.0140
@<TRIPOS>BOND
     1    22    23    1
     2    23    14    1
     3    14    15   ar
     4    15    16   ar
     5     1    16    1
     6     1    24    1
     7    24    25   ar
     8    25    26   ar
     9    26    27   ar
    10    27    28   ar
    11    28    30    1
    12    30    31    3
    13    31    32    1
    14    32    33    1
    15    33    34    1
    16    28    29   ar
    17     1     2    1
    18     2     3    2
    19     3     4    1
    20     3     5    1
    21     5     6   ar
    22     6     7    1
    23     6     8   ar
    24     8     9   ar
    25     9    10   ar
    26    10    11   ar
    27    16    17   ar
    28    17    18   ar
    29    18    19    1
    30    18    20   ar
    31    20    21    2
    32    20    14   ar
    33    11     1    1
    34    29    24   ar
    35    11     5   ar
    36    34    32    1
    37     4    12    1
    38     4    13    1
@<TRIPOS>MOLECULE
*****
 34 38 0 0 0
SMALL
GASTEIGER

@<TRIPOS>ATOM
      1 C         139.2571  142.2740  160.4344 C.3     1  UNL1        0.2322
      2 N         138.1306  141.4688  161.0111 N.2     1  UNL1       -0.0614
      3 C         137.8776  141.9587  162.4061 C.2     1  UNL1        0.3157
      4 N         136.8371  141.4329  163.3500 N.pl3   1  UNL1       -0.2464
      5 C         138.8476  143.0666  162.6915 C.ar    1  UNL1        0.1094
      6 C         139.0648  143.9231  163.9036 C.ar    1  UNL1        0.1470
      7 F         138.2121  143.7282  165.1222 F       1  UNL1       -0.2039
      8 C         140.1345  144.9745  163.8970 C.ar    1  UNL1        0.0299
      9 C         140.9871  145.1694  162.6784 C.ar    1  UNL1        0.0021
     10 C         140.7700  144.3129  161.4664 C.ar    1  UNL1        0.0008
     11 C         139.7003  143.2615  161.4729 C.ar    1  UNL1        0.0390
     12 H         136.2437  140.6991  163.0694 H       1  UNL1        0.2884
     13 H         136.7475  141.8216  164.2500 H       1  UNL1        0.2884
     14 N         137.7779  140.9385  157.0024 N.ar    1  UNL1       -0.2946
     15 C         137.9951  141.7950  158.2145 C.ar    1  UNL1        0.0786
     16 C         139.0400  141.4174  159.2222 C.ar    1  UNL1        0.0468
     17 C         139.8677  140.1833  159.0179 C.ar    1  UNL1        0.0023
     18 C         139.6505  139.3268  157.8059 C.ar    1  UNL1        0.0342
     19 C         140.4782  138.0926  157.6015 C.3     1  UNL1        0.0360
     20 C         138.6056  139.7044  156.7981 C.ar    1  UNL1        0.2568
     21 O         138.3884  138.8478  155.5860 O.2     1  UNL1       -0.2673
     22 C         135.3568  140.7261  156.0840 C.3     1  UNL1        0.0266
     23 C         136.7330  141.3161  155.9946 C.3     1  UNL1        0.1091
     24 C         140.3382  142.9001  159.6042 C.ar    1  UNL1        0.0303
     25 C         141.7592  142.4442  159.7557 C.ar    1  UNL1        0.0004
     26 C         142.8404  143.0704  158.9255 C.ar    1  UNL1        0.0005
     27 C         142.5005  144.1524  157.9439 C.ar    1  UNL1        0.0082
     28 C         141.0795  144.6083  157.7923 C.ar    1  UNL1        0.0415
     29 C         139.9984  143.9822  158.6225 C.ar    1  UNL1        0.0086
     30 C         140.7396  145.6903  156.8106 C.1     1  UNL1       -0.0644
     31 C         140.3998  146.7724  155.8290 C.1     1  UNL1       -0.0874
     32 C         140.0599  147.8545  154.8473 C.3     1  UNL1        0.0645
     33 C         140.1370  148.4216  153.4608 C.3     1  UNL1        0.0140
     34 C         139.3943  149.1615  154.5335 C.3     1  UNL1        0.0140
@<TRIPOS>BOND
     1    22    23    1
     2    23    14    1
     3    14    15   ar
     4    15    16   ar
     5     1    16    1
     6     1    24    1
     7    24    25   ar
     8    25    26   ar
     9    26    27   ar
    10    27    28   ar
    11    28    30    1
    12    30    31    3
    13    31    32    1
    14    32    33    1
    15    33    34    1
    16    28    29   ar
    17     1     2    1
    18     2     3    2
    19     3     4    1
    20     3     5    1
    21     5     6   ar
    22     6     7    1
    23     6     8   ar
    24     8     9   ar
    25     9    10   ar
    26    10    11   ar
    27    16    17   ar
    28    17    18   ar
    29    18    19    1
    30    18    20   ar
    31    20    21    2
    32    20    14   ar
    33    11     1    1
    34    29    24   ar
    35    11     5   ar
    36    34    32    1
    37     4    12    1
    38     4    13    1
@<TRIPOS>MOLECULE
*****
 34 38 0 0 0
SMALL
GASTEIGER

@<TRIPOS>ATOM
      1 C         141.9157  139.6688  160.6870 C.3     1  UNL1        0.2322
      2 N         141.2705  138.3845  161.1162 N.2     1  UNL1       -0.0614
      3 C         141.8077  138.0258  162.4699 C.2     1  UNL1        0.3157
      4 N         141.4334  136.8167  163.2750 N.pl3   1  UNL1       -0.2464
      5 C         142.7849  139.0883  162.8774 C.ar    1  UNL1        0.1094
      6 C         143.6226  139.2624  164.1095 C.ar    1  UNL1        0.1470
      7 F         143.5558  138.2469  165.2114 F       1  UNL1       -0.2039
      8 C         144.5270  140.4519  164.2395 C.ar    1  UNL1        0.0299
      9 C         144.5937  141.4674  163.1376 C.ar    1  UNL1        0.0021
     10 C         143.7561  141.2934  161.9055 C.ar    1  UNL1        0.0008
     11 C         142.8517  140.1038  161.7754 C.ar    1  UNL1        0.0390
     12 H         140.7786  136.1727  162.9205 H       1  UNL1        0.2884
     13 H         141.8426  136.6672  164.1578 H       1  UNL1        0.2884
     14 N         140.6992  138.4045  157.1272 N.ar    1  UNL1       -0.2946
     15 C         141.5368  138.5786  158.3593 C.ar    1  UNL1        0.0786
     16 C         141.0780  139.4947  159.4549 C.ar    1  UNL1        0.0468
     17 C         139.7815  140.2367  159.3184 C.ar    1  UNL1        0.0023
     18 C         138.9439  140.0625  158.0863 C.ar    1  UNL1        0.0342
     19 C         137.6474  140.8045  157.9498 C.3     1  UNL1        0.0360
     20 C         139.4027  139.1465  156.9908 C.ar    1  UNL1        0.2568
     21 O         138.5650  138.9723  155.7587 O.2     1  UNL1       -0.2673
     22 C         141.8041  136.1780  156.3711 C.3     1  UNL1        0.0266
     23 C         141.1580  137.4884  156.0317 C.3     1  UNL1        0.1091
     24 C         142.3858  140.9167  160.0002 C.ar    1  UNL1        0.0303
     25 C         141.6590  142.2110  160.2163 C.ar    1  UNL1        0.0004
     26 C         142.1292  143.4590  159.5295 C.ar    1  UNL1        0.0005
     27 C         143.3260  143.4126  158.6265 C.ar    1  UNL1        0.0082
     28 C         144.0528  142.1183  158.4103 C.ar    1  UNL1        0.0415
     29 C         143.5827  140.8704  159.0971 C.ar    1  UNL1        0.0086
     30 C         145.2496  142.0720  157.5073 C.1     1  UNL1       -0.0644
     31 C         146.4465  142.0256  156.6045 C.1     1  UNL1       -0.0874
     32 C         147.6435  141.9793  155.7015 C.3     1  UNL1        0.0645
     33 C         148.2772  142.2519  154.3695 C.3     1  UNL1        0.0140
     34 C         149.0827  141.6265  155.4695 C.3     1  UNL1        0.0140
@<TRIPOS>BOND
     1    22    23    1
     2    23    14    1
     3    14    15   ar
     4    15    16   ar
     5     1    16    1
     6     1    24    1
     7    24    25   ar
     8    25    26   ar
     9    26    27   ar
    10    27    28   ar
    11    28    30    1
    12    30    31    3
    13    31    32    1
    14    32    33    1
    15    33    34    1
    16    28    29   ar
    17     1     2    1
    18     2     3    2
    19     3     4    1
    20     3     5    1
    21     5     6   ar
    22     6     7    1
    23     6     8   ar
    24     8     9   ar
    25     9    10   ar
    26    10    11   ar
    27    16    17   ar
    28    17    18   ar
    29    18    19    1
    30    18    20   ar
    31    20    21    2
    32    20    14   ar
    33    11     1    1
    34    29    24   ar
    35    11     5   ar
    36    34    32    1
    37     4    12    1
    38     4    13    1
