@<TRIPOS>MOLECULE
*****
 31 34 0 0 0
SMALL
GASTEIGER

@<TRIPOS>ATOM
      1 N         142.7253  138.0673  162.3633 N.3     1  UNL1       -0.2921
      2 H         143.3598  138.5785  161.7497 H       1  UNL1        0.1236
      3 C         142.5509  138.9015  163.5977 C.3     1  UNL1        0.0761
      4 C         142.7935  138.4512  165.0077 C.3     1  UNL1        0.0390
      5 C         142.4957  139.6039  165.9202 C.3     1  UNL1        0.0952
      6 N         142.0691  140.7666  165.0740 N.am    1  UNL1       -0.2747
      7 C         141.6772  142.1250  165.5752 C.2     1  UNL1        0.2491
      8 O         141.2711  143.1942  164.6047 O.2     1  UNL1       -0.2699
      9 C         142.1032  140.3325  163.6386 C.3     1  UNL1        0.1094
     10 C         141.6914  142.4142  167.0471 C.ar    1  UNL1        0.0544
     11 C         140.4322  142.8455  167.7387 C.ar    1  UNL1        0.0046
     12 C         140.4463  143.1347  169.2105 C.ar    1  UNL1        0.0010
     13 C         141.7196  142.9926  169.9906 C.ar    1  UNL1        0.0114
     14 C         142.9788  142.5612  169.2989 C.ar    1  UNL1        0.0578
     15 CL        144.2521  142.4191  170.0790 Cl      1  UNL1       -0.0822
     16 C         142.9647  142.2720  167.8271 C.ar    1  UNL1        0.0159
     17 C         141.5313  137.6926  161.5362 C.3     1  UNL1        0.1148
     18 N         139.4483  139.1301  160.6762 N.ar    1  UNL1       -0.3070
     19 C         139.2424  140.1679  159.6129 C.ar    1  UNL1        0.1786
     20 N         140.5553  140.3908  158.9223 N.ar    1  UNL1       -0.2226
     21 C         141.5725  139.4906  159.5588 C.ar    1  UNL1        0.1147
     22 C         140.8884  138.7115  160.6427 C.ar    1  UNL1        0.0739
     23 C         138.3985  138.6033  161.6091 C.3     1  UNL1        0.1340
     24 C         138.7689  139.3030  166.0389 C.ar    1  UNL1        0.0684
     25 C         139.0613  137.9476  165.4666 C.ar    1  UNL1        0.0100
     26 C         138.9378  137.7144  163.9900 C.ar    1  UNL1       -0.0017
     27 C         138.5220  138.8365  163.0857 C.ar    1  UNL1        0.0005
     28 C         138.2296  140.1919  163.6579 C.ar    1  UNL1       -0.0017
     29 C         138.3531  140.4251  165.1345 C.ar    1  UNL1        0.0100
     30 N         139.0159  139.7695  168.9921 N.1     1  UNL1       -0.1908
     31 C         138.8924  139.5362  167.5155 C.1     1  UNL1        0.1004
@<TRIPOS>BOND
     1    30    31    3
     2    31    24    1
     3    24    25   ar
     4    25    26   ar
     5    26    27   ar
     6    27    23    1
     7    23    18    1
     8    18    19   ar
     9    19    20   ar
    10    20    21   ar
    11    21    22   ar
    12    22    17    1
    13    17     1    1
    14     3     1    1
    15     3     4    1
    16     4     5    1
    17     5     6    1
    18     6     7   am
    19     7     8    2
    20     7    10    1
    21    10    11   ar
    22    11    12   ar
    23    12    13   ar
    24    13    14   ar
    25    14    15    1
    26    14    16   ar
    27     6     9    1
    28    27    28   ar
    29    28    29   ar
    30    29    24   ar
    31    22    18   ar
    32     9     3    1
    33    16    10   ar
    34     1     2    1
@<TRIPOS>MOLECULE
*****
 31 34 0 0 0
SMALL
GASTEIGER

@<TRIPOS>ATOM
      1 N         141.5815  138.2498  162.1431 N.3     1  UNL1       -0.2921
      2 H         142.1868  138.7396  161.4843 H       1  UNL1        0.1236
      3 C         141.6002  139.0399  163.4180 C.3     1  UNL1        0.0761
      4 C         141.6068  138.4729  164.8067 C.3     1  UNL1        0.0390
      5 C         141.6262  139.6184  165.7750 C.3     1  UNL1        0.0952
      6 N         141.6316  140.8933  164.9847 N.am    1  UNL1       -0.2747
      7 C         141.6498  142.2819  165.5515 C.2     1  UNL1        0.2491
      8 O         141.6532  143.4673  164.6323 O.2     1  UNL1       -0.2699
      9 C         141.6155  140.5358  163.5280 C.3     1  UNL1        0.1094
     10 C         141.6647  142.4852  167.0377 C.ar    1  UNL1        0.0544
     11 C         140.3958  142.8276  167.7605 C.ar    1  UNL1        0.0046
     12 C         140.4107  143.0310  169.2466 C.ar    1  UNL1        0.0010
     13 C         141.6945  142.8918  170.0098 C.ar    1  UNL1        0.0114
     14 C         142.9634  142.5493  169.2869 C.ar    1  UNL1        0.0578
     15 CL        144.2472  142.4102  170.0501 Cl      1  UNL1       -0.0822
     16 C         142.9486  142.3460  167.8008 C.ar    1  UNL1        0.0159
     17 C         140.2832  137.9996  161.4346 C.3     1  UNL1        0.1148
     18 N         138.6959  139.7019  160.1201 N.ar    1  UNL1       -0.3070
     19 C         138.7186  140.3407  158.7631 C.ar    1  UNL1        0.1786
     20 N         139.9453  139.8608  158.0453 N.ar    1  UNL1       -0.2226
     21 C         140.6807  138.9254  158.9588 C.ar    1  UNL1        0.1147
     22 C         139.9086  138.8272  160.2410 C.ar    1  UNL1        0.0739
     23 C         137.6452  139.9026  161.1716 C.3     1  UNL1        0.1340
     24 C         138.0720  143.2278  164.1734 C.ar    1  UNL1        0.0684
     25 C         138.0269  141.8015  164.6355 C.ar    1  UNL1        0.0100
     26 C         137.8846  140.6931  163.6349 C.ar    1  UNL1       -0.0017
     27 C         137.7875  141.0110  162.1722 C.ar    1  UNL1        0.0005
     28 C         137.8325  142.4373  161.7101 C.ar    1  UNL1       -0.0017
     29 C         137.9748  143.5457  162.7107 C.ar    1  UNL1        0.0100
     30 N         138.3565  145.4446  166.1746 N.1     1  UNL1       -0.1908
     31 C         138.2143  144.3362  165.1740 C.1     1  UNL1        0.1004
@<TRIPOS>BOND
     1    30    31    3
     2    31    24    1
     3    24    25   ar
     4    25    26   ar
     5    26    27   ar
     6    27    23    1
     7    23    18    1
     8    18    19   ar
     9    19    20   ar
    10    20    21   ar
    11    21    22   ar
    12    22    17    1
    13    17     1    1
    14     3     1    1
    15     3     4    1
    16     4     5    1
    17     5     6    1
    18     6     7   am
    19     7     8    2
    20     7    10    1
    21    10    11   ar
    22    11    12   ar
    23    12    13   ar
    24    13    14   ar
    25    14    15    1
    26    14    16   ar
    27     6     9    1
    28    27    28   ar
    29    28    29   ar
    30    29    24   ar
    31    22    18   ar
    32     9     3    1
    33    16    10   ar
    34     1     2    1
@<TRIPOS>MOLECULE
*****
 31 34 0 0 0
SMALL
GASTEIGER

@<TRIPOS>ATOM
      1 N         144.5474  139.3342  162.7588 N.3     1  UNL1       -0.2921
      2 H         145.5322  139.5799  162.8599 H       1  UNL1        0.1236
      3 C         143.8959  139.6032  164.0829 C.3     1  UNL1        0.0761
      4 C         143.8010  138.6417  165.2303 C.3     1  UNL1        0.0390
      5 C         143.0713  139.3252  166.3486 C.3     1  UNL1        0.0952
      6 N         142.7154  140.7090  165.8922 N.am    1  UNL1       -0.2747
      7 C         141.9791  141.7400  166.6952 C.2     1  UNL1        0.2491
      8 O         141.6931  143.0882  166.1030 O.2     1  UNL1       -0.2699
      9 C         143.2250  140.8809  164.4920 C.3     1  UNL1        0.1094
     10 C         141.5286  141.4229  168.0905 C.ar    1  UNL1        0.0544
     11 C         142.4782  141.5851  169.2402 C.ar    1  UNL1        0.0046
     12 C         142.0278  141.2680  170.6354 C.ar    1  UNL1        0.0010
     13 C         140.6279  140.7887  170.8808 C.ar    1  UNL1        0.0114
     14 C         139.6782  140.6264  169.7311 C.ar    1  UNL1        0.0578
     15 CL        138.2783  140.1471  169.9765 Cl      1  UNL1       -0.0822
     16 C         140.1286  140.9435  168.3359 C.ar    1  UNL1        0.0159
     17 C         144.0525  140.0284  161.5246 C.3     1  UNL1        0.1148
     18 N         141.4353  139.7592  161.0526 N.ar    1  UNL1       -0.3070
     19 C         140.6096  138.9973  160.0587 C.ar    1  UNL1        0.1786
     20 N         141.5446  138.2402  159.1627 N.ar    1  UNL1       -0.2226
     21 C         142.9482  138.5344  159.6027 C.ar    1  UNL1        0.1147
     22 C         142.8806  139.4731  160.7707 C.ar    1  UNL1        0.0739
     23 C         140.9083  140.6507  162.1377 C.3     1  UNL1        0.1340
     24 C         138.5260  138.8993  165.5299 C.ar    1  UNL1        0.0684
     25 C         139.5296  138.0539  164.8032 C.ar    1  UNL1        0.0100
     26 C         140.3237  138.6377  163.6725 C.ar    1  UNL1       -0.0017
     27 C         140.1142  140.0669  163.2684 C.ar    1  UNL1        0.0005
     28 C         139.1106  140.9123  163.9950 C.ar    1  UNL1       -0.0017
     29 C         138.3165  140.3285  165.1258 C.ar    1  UNL1        0.0100
     30 N         136.9378  137.7317  167.7913 N.1     1  UNL1       -0.1908
     31 C         137.7319  138.3155  166.6606 C.1     1  UNL1        0.1004
@<TRIPOS>BOND
     1    30    31    3
     2    31    24    1
     3    24    25   ar
     4    25    26   ar
     5    26    27   ar
     6    27    23    1
     7    23    18    1
     8    18    19   ar
     9    19    20   ar
    10    20    21   ar
    11    21    22   ar
    12    22    17    1
    13    17     1    1
    14     3     1    1
    15     3     4    1
    16     4     5    1
    17     5     6    1
    18     6     7   am
    19     7     8    2
    20     7    10    1
    21    10    11   ar
    22    11    12   ar
    23    12    13   ar
    24    13    14   ar
    25    14    15    1
    26    14    16   ar
    27     6     9    1
    28    27    28   ar
    29    28    29   ar
    30    29    24   ar
    31    22    18   ar
    32     9     3    1
    33    16    10   ar
    34     1     2    1
@<TRIPOS>MOLECULE
*****
 31 34 0 0 0
SMALL
GASTEIGER

@<TRIPOS>ATOM
      1 N         143.3788  142.7087  162.1372 N.3     1  UNL1       -0.2921
      2 H         143.2857  143.7242  162.1620 H       1  UNL1        0.1236
      3 C         143.0085  142.2066  163.5013 C.3     1  UNL1        0.0761
      4 C         142.7600  143.0526  164.7148 C.3     1  UNL1        0.0390
      5 C         142.4196  142.1392  165.8549 C.3     1  UNL1        0.0952
      6 N         142.4577  140.7287  165.3460 N.am    1  UNL1       -0.2747
      7 C         142.1806  139.4934  166.1504 C.2     1  UNL1        0.2491
      8 O         142.2572  138.1431  165.5017 O.2     1  UNL1       -0.2699
      9 C         142.8217  140.7704  163.8914 C.3     1  UNL1        0.1094
     10 C         141.8268  139.6084  167.6036 C.ar    1  UNL1        0.0544
     11 C         142.8458  139.2741  168.6523 C.ar    1  UNL1        0.0046
     12 C         142.4921  139.3890  170.1054 C.ar    1  UNL1        0.0010
     13 C         141.1193  139.8383  170.5099 C.ar    1  UNL1        0.0114
     14 C         140.1002  140.1726  169.4612 C.ar    1  UNL1        0.0578
     15 CL        138.7274  140.6219  169.8656 Cl      1  UNL1       -0.0822
     16 C         140.4539  140.0577  168.0080 C.ar    1  UNL1        0.0159
     17 C         142.6221  142.2338  160.9322 C.3     1  UNL1        0.1148
     18 N         140.0442  141.5487  161.1043 N.ar    1  UNL1       -0.3070
     19 C         138.7416  142.2472  160.8484 C.ar    1  UNL1        0.1786
     20 N         139.0462  143.6447  160.3960 N.ar    1  UNL1       -0.2226
     21 C         140.5369  143.8097  160.3723 C.ar    1  UNL1        0.1147
     22 C         141.1537  142.5144  160.8101 C.ar    1  UNL1        0.0739
     23 C         140.2083  140.1331  161.5723 C.3     1  UNL1        0.1340
     24 C         138.3177  138.8063  165.4343 C.ar    1  UNL1        0.0684
     25 C         138.9205  137.7928  164.5074 C.ar    1  UNL1        0.0100
     26 C         139.5507  138.2350  163.2200 C.ar    1  UNL1       -0.0017
     27 C         139.5781  139.6908  162.8596 C.ar    1  UNL1        0.0005
     28 C         138.9754  140.7044  163.7866 C.ar    1  UNL1       -0.0017
     29 C         138.3452  140.2621  165.0740 C.ar    1  UNL1        0.0100
     30 N         137.0573  137.9218  168.0090 N.1     1  UNL1       -0.1908
     31 C         137.6875  138.3641  166.7217 C.1     1  UNL1        0.1004
@<TRIPOS>BOND
     1    30    31    3
     2    31    24    1
     3    24    25   ar
     4    25    26   ar
     5    26    27   ar
     6    27    23    1
     7    23    18    1
     8    18    19   ar
     9    19    20   ar
    10    20    21   ar
    11    21    22   ar
    12    22    17    1
    13    17     1    1
    14     3     1    1
    15     3     4    1
    16     4     5    1
    17     5     6    1
    18     6     7   am
    19     7     8    2
    20     7    10    1
    21    10    11   ar
    22    11    12   ar
    23    12    13   ar
    24    13    14   ar
    25    14    15    1
    26    14    16   ar
    27     6     9    1
    28    27    28   ar
    29    28    29   ar
    30    29    24   ar
    31    22    18   ar
    32     9     3    1
    33    16    10   ar
    34     1     2    1
@<TRIPOS>MOLECULE
*****
 31 34 0 0 0
SMALL
GASTEIGER

@<TRIPOS>ATOM
      1 N         143.2174  142.7070  161.5503 N.3     1  UNL1       -0.2921
      2 H         142.5456  143.2744  161.0336 H       1  UNL1        0.1236
      3 C         142.6443  142.4979  162.9206 C.3     1  UNL1        0.0761
      4 C         143.2812  142.9091  164.2149 C.3     1  UNL1        0.0390
      5 C         142.3641  142.5063  165.3314 C.3     1  UNL1        0.0952
      6 N         141.1604  141.8462  164.7272 N.am    1  UNL1       -0.2747
      7 C         139.9891  141.2890  165.4806 C.2     1  UNL1        0.2491
      8 O         138.8518  140.6543  164.7364 O.2     1  UNL1       -0.2699
      9 C         141.3335  141.8410  163.2372 C.3     1  UNL1        0.1094
     10 C         139.9551  141.3665  166.9783 C.ar    1  UNL1        0.0544
     11 C         139.5745  140.1595  167.7832 C.ar    1  UNL1        0.0046
     12 C         139.5405  140.2369  169.2808 C.ar    1  UNL1        0.0010
     13 C         139.8870  141.5215  169.9734 C.ar    1  UNL1        0.0114
     14 C         140.2676  142.7286  169.1684 C.ar    1  UNL1        0.0578
     15 CL        140.6142  144.0132  169.8610 Cl      1  UNL1       -0.0822
     16 C         140.3017  142.6512  167.6708 C.ar    1  UNL1        0.0159
     17 C         143.5426  141.5256  160.6850 C.3     1  UNL1        0.1148
     18 N         142.2450  139.2035  160.4220 N.ar    1  UNL1       -0.3070
     19 C         141.0218  138.7499  159.6817 C.ar    1  UNL1        0.1786
     20 N         140.4598  139.9311  158.9473 N.ar    1  UNL1       -0.2226
     21 C         141.3358  141.1146  159.2338 C.ar    1  UNL1        0.1147
     22 C         142.4390  140.6650  160.1452 C.ar    1  UNL1        0.0739
     23 C         143.1204  138.3463  161.2873 C.3     1  UNL1        0.1340
     24 C         143.0225  138.8243  165.7607 C.ar    1  UNL1        0.0684
     25 C         141.8644  138.1905  165.0486 C.ar    1  UNL1        0.0100
     26 C         141.8970  138.0312  163.5575 C.ar    1  UNL1       -0.0017
     27 C         143.0878  138.5056  162.7784 C.ar    1  UNL1        0.0005
     28 C         144.2459  139.1394  163.4905 C.ar    1  UNL1       -0.0017
     29 C         144.2132  139.2987  164.9817 C.ar    1  UNL1        0.0100
     30 N         142.9572  139.1429  168.7430 N.1     1  UNL1       -0.1908
     31 C         142.9898  138.9836  167.2519 C.1     1  UNL1        0.1004
@<TRIPOS>BOND
     1    30    31    3
     2    31    24    1
     3    24    25   ar
     4    25    26   ar
     5    26    27   ar
     6    27    23    1
     7    23    18    1
     8    18    19   ar
     9    19    20   ar
    10    20    21   ar
    11    21    22   ar
    12    22    17    1
    13    17     1    1
    14     3     1    1
    15     3     4    1
    16     4     5    1
    17     5     6    1
    18     6     7   am
    19     7     8    2
    20     7    10    1
    21    10    11   ar
    22    11    12   ar
    23    12    13   ar
    24    13    14   ar
    25    14    15    1
    26    14    16   ar
    27     6     9    1
    28    27    28   ar
    29    28    29   ar
    30    29    24   ar
    31    22    18   ar
    32     9     3    1
    33    16    10   ar
    34     1     2    1
@<TRIPOS>MOLECULE
*****
 31 34 0 0 0
SMALL
GASTEIGER

@<TRIPOS>ATOM
      1 N         143.4651  142.2715  162.5895 N.3     1  UNL1       -0.2921
      2 H         143.3910  143.2790  162.4484 H       1  UNL1        0.1236
      3 C         143.0317  141.9987  163.9993 C.3     1  UNL1        0.0761
      4 C         142.2217  142.9168  164.8660 C.3     1  UNL1        0.0390
      5 C         142.0216  142.2454  166.1924 C.3     1  UNL1        0.0952
      6 N         142.7079  140.9125  166.1454 N.am    1  UNL1       -0.2747
      7 C         142.7606  139.9083  167.2584 C.2     1  UNL1        0.2491
      8 O         143.4884  138.6111  167.0643 O.2     1  UNL1       -0.2699
      9 C         143.3321  140.7600  164.7900 C.3     1  UNL1        0.1094
     10 C         142.0855  140.2013  168.5656 C.ar    1  UNL1        0.0544
     11 C         142.9043  140.5775  169.7647 C.ar    1  UNL1        0.0046
     12 C         142.2293  140.8705  171.0718 C.ar    1  UNL1        0.0010
     13 C         140.7355  140.7872  171.1797 C.ar    1  UNL1        0.0114
     14 C         139.9167  140.4109  169.9805 C.ar    1  UNL1        0.0578
     15 CL        138.4229  140.3276  170.0884 Cl      1  UNL1       -0.0822
     16 C         140.5917  140.1180  168.6734 C.ar    1  UNL1        0.0159
     17 C         142.7473  141.6200  161.4447 C.3     1  UNL1        0.1148
     18 N         141.7559  139.1488  161.2092 N.ar    1  UNL1       -0.3070
     19 C         142.3401  137.7920  160.9490 C.ar    1  UNL1        0.1786
     20 N         143.8246  137.9474  160.7989 N.ar    1  UNL1       -0.2226
     21 C         144.1578  139.4003  160.9663 C.ar    1  UNL1        0.1147
     22 C         142.8793  140.1428  161.2199 C.ar    1  UNL1        0.0739
     23 C         140.3035  139.4575  161.4214 C.3     1  UNL1        0.1340
     24 C         138.4020  138.6900  165.4271 C.ar    1  UNL1        0.0684
     25 C         138.5739  140.0967  164.9356 C.ar    1  UNL1        0.0100
     26 C         139.2077  140.3525  163.6004 C.ar    1  UNL1       -0.0017
     27 C         139.6697  139.2016  162.7566 C.ar    1  UNL1        0.0005
     28 C         139.4978  137.7949  163.2481 C.ar    1  UNL1       -0.0017
     29 C         138.8640  137.5391  164.5833 C.ar    1  UNL1        0.0100
     30 N         137.1344  138.1784  168.0975 N.1     1  UNL1       -0.1908
     31 C         137.7682  138.4342  166.7623 C.1     1  UNL1        0.1004
@<TRIPOS>BOND
     1    30    31    3
     2    31    24    1
     3    24    25   ar
     4    25    26   ar
     5    26    27   ar
     6    27    23    1
     7    23    18    1
     8    18    19   ar
     9    19    20   ar
    10    20    21   ar
    11    21    22   ar
    12    22    17    1
    13    17     1    1
    14     3     1    1
    15     3     4    1
    16     4     5    1
    17     5     6    1
    18     6     7   am
    19     7     8    2
    20     7    10    1
    21    10    11   ar
    22    11    12   ar
    23    12    13   ar
    24    13    14   ar
    25    14    15    1
    26    14    16   ar
    27     6     9    1
    28    27    28   ar
    29    28    29   ar
    30    29    24   ar
    31    22    18   ar
    32     9     3    1
    33    16    10   ar
    34     1     2    1
@<TRIPOS>MOLECULE
*****
 31 34 0 0 0
SMALL
GASTEIGER

@<TRIPOS>ATOM
      1 N         141.0380  145.7695  162.3219 N.3     1  UNL1       -0.2921
      2 H         141.2155  146.7188  162.6499 H       1  UNL1        0.1236
      3 C         140.7680  144.9345  163.5384 C.3     1  UNL1        0.0761
      4 C         139.4591  144.8305  164.2636 C.3     1  UNL1        0.0390
      5 C         139.6416  143.8886  165.4167 C.3     1  UNL1        0.0952
      6 N         141.0633  143.4105  165.4041 N.am    1  UNL1       -0.2747
      7 C         141.6805  142.4540  166.3808 C.2     1  UNL1        0.2491
      8 O         143.1226  142.0658  166.2412 O.2     1  UNL1       -0.2699
      9 C         141.7594  144.0569  164.2432 C.3     1  UNL1        0.1094
     10 C         140.8555  141.8856  167.4973 C.ar    1  UNL1        0.0544
     11 C         140.2682  140.5112  167.3712 C.ar    1  UNL1        0.0046
     12 C         139.4433  139.9428  168.4877 C.ar    1  UNL1        0.0010
     13 C         139.2057  140.7489  169.7301 C.ar    1  UNL1        0.0114
     14 C         139.7930  142.1234  169.8562 C.ar    1  UNL1        0.0578
     15 CL        139.5554  142.9294  171.0987 Cl      1  UNL1       -0.0822
     16 C         140.6180  142.6918  168.7398 C.ar    1  UNL1        0.0159
     17 C         140.0061  145.8716  161.2380 C.3     1  UNL1        0.1148
     18 N         139.6164  143.5998  159.8844 N.ar    1  UNL1       -0.3070
     19 C         139.9337  143.1235  158.4979 C.ar    1  UNL1        0.1786
     20 N         140.6277  144.2381  157.7723 N.ar    1  UNL1       -0.2226
     21 C         140.7393  145.4032  158.7105 C.ar    1  UNL1        0.1147
     22 C         140.1143  145.0087  160.0158 C.ar    1  UNL1        0.0739
     23 C         138.9230  142.8066  160.9521 C.3     1  UNL1        0.1340
     24 C         141.2957  140.0641  163.6165 C.ar    1  UNL1        0.0684
     25 C         139.8169  140.2122  163.8192 C.ar    1  UNL1        0.0100
     26 C         139.0260  141.1264  162.9310 C.ar    1  UNL1       -0.0017
     27 C         139.7139  141.8924  161.8402 C.ar    1  UNL1        0.0005
     28 C         141.1927  141.7443  161.6376 C.ar    1  UNL1       -0.0017
     29 C         141.9836  140.8302  162.5258 C.ar    1  UNL1        0.0100
     30 N         142.8775  138.2358  165.3929 N.1     1  UNL1       -0.1908
     31 C         142.0866  139.1500  164.5047 C.1     1  UNL1        0.1004
@<TRIPOS>BOND
     1    30    31    3
     2    31    24    1
     3    24    25   ar
     4    25    26   ar
     5    26    27   ar
     6    27    23    1
     7    23    18    1
     8    18    19   ar
     9    19    20   ar
    10    20    21   ar
    11    21    22   ar
    12    22    17    1
    13    17     1    1
    14     3     1    1
    15     3     4    1
    16     4     5    1
    17     5     6    1
    18     6     7   am
    19     7     8    2
    20     7    10    1
    21    10    11   ar
    22    11    12   ar
    23    12    13   ar
    24    13    14   ar
    25    14    15    1
    26    14    16   ar
    27     6     9    1
    28    27    28   ar
    29    28    29   ar
    30    29    24   ar
    31    22    18   ar
    32     9     3    1
    33    16    10   ar
    34     1     2    1
@<TRIPOS>MOLECULE
*****
 31 34 0 0 0
SMALL
GASTEIGER

@<TRIPOS>ATOM
      1 N         141.5680  145.2087  161.8888 N.3     1  UNL1       -0.2921
      2 H         140.8817  145.9570  161.7924 H       1  UNL1        0.1236
      3 C         141.2389  144.4802  163.1580 C.3     1  UNL1        0.0761
      4 C         139.8704  144.3125  163.7489 C.3     1  UNL1        0.0390
      5 C         140.0063  143.5201  165.0153 C.3     1  UNL1        0.0952
      6 N         141.4587  143.1981  165.2070 N.am    1  UNL1       -0.2747
      7 C         142.0461  142.4194  166.3465 C.2     1  UNL1        0.2491
      8 O         143.5250  142.1752  166.4045 O.2     1  UNL1       -0.2699
      9 C         142.2205  143.7914  164.0591 C.3     1  UNL1        0.1094
     10 C         141.1547  141.8848  167.4281 C.ar    1  UNL1        0.0544
     11 C         140.5876  140.5008  167.3166 C.ar    1  UNL1        0.0046
     12 C         139.6962  139.9662  168.3981 C.ar    1  UNL1        0.0010
     13 C         139.3720  140.8157  169.5911 C.ar    1  UNL1        0.0114
     14 C         139.9392  142.1999  169.7025 C.ar    1  UNL1        0.0578
     15 CL        139.6150  143.0494  170.8954 Cl      1  UNL1       -0.0822
     16 C         140.8306  142.7345  168.6210 C.ar    1  UNL1        0.0159
     17 C         141.5891  144.4697  160.5836 C.3     1  UNL1        0.1148
     18 N         141.3618  141.8065  160.6113 N.ar    1  UNL1       -0.3070
     19 C         140.2460  140.8346  160.3650 C.ar    1  UNL1        0.1786
     20 N         139.0117  141.6201  160.0337 N.ar    1  UNL1       -0.2226
     21 C         139.3646  143.0774  160.0753 C.ar    1  UNL1        0.1147
     22 C         140.8170  143.1926  160.4322 C.ar    1  UNL1        0.0739
     23 C         142.7742  141.4542  160.9730 C.3     1  UNL1        0.1340
     24 C         143.6221  139.1406  164.7385 C.ar    1  UNL1        0.0684
     25 C         142.2051  139.4072  164.3250 C.ar    1  UNL1        0.0100
     26 C         141.9224  140.1783  163.0699 C.ar    1  UNL1       -0.0017
     27 C         143.0568  140.6830  162.2282 C.ar    1  UNL1        0.0005
     28 C         144.4738  140.4164  162.6416 C.ar    1  UNL1       -0.0017
     29 C         144.7564  139.6453  163.8968 C.ar    1  UNL1        0.0100
     30 N         144.1873  137.5982  167.2488 N.1     1  UNL1       -0.1908
     31 C         143.9047  138.3694  165.9936 C.1     1  UNL1        0.1004
@<TRIPOS>BOND
     1    30    31    3
     2    31    24    1
     3    24    25   ar
     4    25    26   ar
     5    26    27   ar
     6    27    23    1
     7    23    18    1
     8    18    19   ar
     9    19    20   ar
    10    20    21   ar
    11    21    22   ar
    12    22    17    1
    13    17     1    1
    14     3     1    1
    15     3     4    1
    16     4     5    1
    17     5     6    1
    18     6     7   am
    19     7     8    2
    20     7    10    1
    21    10    11   ar
    22    11    12   ar
    23    12    13   ar
    24    13    14   ar
    25    14    15    1
    26    14    16   ar
    27     6     9    1
    28    27    28   ar
    29    28    29   ar
    30    29    24   ar
    31    22    18   ar
    32     9     3    1
    33    16    10   ar
    34     1     2    1
@<TRIPOS>MOLECULE
*****
 31 34 0 0 0
SMALL
GASTEIGER

@<TRIPOS>ATOM
      1 N         141.3587  144.7223  161.9666 N.3     1  UNL1       -0.2921
      2 H         140.4480  144.9998  161.6005 H       1  UNL1        0.1236
      3 C         141.1121  144.0799  163.2994 C.3     1  UNL1        0.0761
      4 C         139.7732  143.7107  163.8660 C.3     1  UNL1        0.0390
      5 C         139.9948  143.0965  165.2165 C.3     1  UNL1        0.0952
      6 N         141.4706  143.0860  165.4844 N.am    1  UNL1       -0.2747
      7 C         142.1386  142.5602  166.7202 C.2     1  UNL1        0.2491
      8 O         143.6322  142.6169  166.8473 O.2     1  UNL1       -0.2699
      9 C         142.1612  143.6938  164.2996 C.3     1  UNL1        0.1094
     10 C         141.3131  141.9775  167.8289 C.ar    1  UNL1        0.0544
     11 C         141.0609  140.4998  167.8791 C.ar    1  UNL1        0.0046
     12 C         140.2354  139.9171  168.9877 C.ar    1  UNL1        0.0010
     13 C         139.6622  140.8122  170.0461 C.ar    1  UNL1        0.0114
     14 C         139.9144  142.2900  169.9958 C.ar    1  UNL1        0.0578
     15 CL        139.3412  143.1851  171.0542 Cl      1  UNL1       -0.0822
     16 C         140.7399  142.8727  168.8872 C.ar    1  UNL1        0.0159
     17 C         142.0464  143.9521  160.8784 C.3     1  UNL1        0.1148
     18 N         142.6328  141.3930  161.3802 N.ar    1  UNL1       -0.3070
     19 C         143.8814  140.6405  161.7333 C.ar    1  UNL1        0.1786
     20 N         145.0123  141.6239  161.7995 N.ar    1  UNL1       -0.2226
     21 C         144.4624  142.9842  161.4873 C.ar    1  UNL1        0.1147
     22 C         142.9919  142.8415  161.2282 C.ar    1  UNL1        0.0739
     23 C         141.2652  140.8010  161.2092 C.3     1  UNL1        0.1340
     24 C         138.9597  139.3868  164.8057 C.ar    1  UNL1        0.0684
     25 C         138.2289  139.9011  163.6010 C.ar    1  UNL1        0.0100
     26 C         138.9974  140.3725  162.4021 C.ar    1  UNL1       -0.0017
     27 C         140.4967  140.3296  162.4080 C.ar    1  UNL1        0.0005
     28 C         141.2276  139.8154  163.6127 C.ar    1  UNL1       -0.0017
     29 C         140.4591  139.3440  164.8115 C.ar    1  UNL1        0.0100
     30 N         137.4227  138.4440  167.2033 N.1     1  UNL1       -0.1908
     31 C         138.1912  138.9154  166.0045 C.1     1  UNL1        0.1004
@<TRIPOS>BOND
     1    30    31    3
     2    31    24    1
     3    24    25   ar
     4    25    26   ar
     5    26    27   ar
     6    27    23    1
     7    23    18    1
     8    18    19   ar
     9    19    20   ar
    10    20    21   ar
    11    21    22   ar
    12    22    17    1
    13    17     1    1
    14     3     1    1
    15     3     4    1
    16     4     5    1
    17     5     6    1
    18     6     7   am
    19     7     8    2
    20     7    10    1
    21    10    11   ar
    22    11    12   ar
    23    12    13   ar
    24    13    14   ar
    25    14    15    1
    26    14    16   ar
    27     6     9    1
    28    27    28   ar
    29    28    29   ar
    30    29    24   ar
    31    22    18   ar
    32     9     3    1
    33    16    10   ar
    34     1     2    1
