@<TRIPOS>MOLECULE
*****
 30 33 0 0 0
SMALL
GASTEIGER

@<TRIPOS>ATOM
      1 N         144.1026  140.0119  164.0409 N.3     1  UNL1       -0.2700
      2 C         143.5650  139.2923  162.8397 C.3     1  UNL1        0.0897
      3 C         142.4210  138.3337  162.9894 C.3     1  UNL1        0.0897
      4 N         141.8147  138.0948  164.3404 N.3     1  UNL1       -0.2700
      5 C         142.3523  138.8145  165.5417 C.3     1  UNL1        0.0897
      6 C         143.4962  139.7730  165.3919 C.3     1  UNL1        0.0897
      7 C         145.2467  140.9705  163.8912 C.3     1  UNL1        0.0769
      8 C         145.0648  142.4165  164.2459 C.3     1  UNL1        0.0438
      9 C         142.6727  144.1590  161.6017 C.ar    1  UNL1        0.1479
     10 C         143.8178  143.3828  162.1816 C.ar    1  UNL1        0.0334
     11 C         143.9197  143.1927  163.6660 C.ar    1  UNL1       -0.0177
     12 C         142.8764  143.7787  164.5706 C.ar    1  UNL1       -0.0033
     13 C         141.7313  144.5549  163.9906 C.ar    1  UNL1        0.0130
     14 C         141.6294  144.7450  162.5063 C.ar    1  UNL1        0.1023
     15 C         142.0274  143.2480  159.2557 C.3     1  UNL1        0.2525
     16 O         142.5708  144.3491  160.1173 O.3     1  UNL1       -0.4708
     17 C         140.4843  145.5212  161.9263 C.1     1  UNL1        0.1035
     18 N         139.3392  146.2973  161.3464 N.1     1  UNL1       -0.1907
     19 C         140.6706  137.1362  164.4901 C.3     1  UNL1        0.0769
     20 C         139.2912  137.6530  164.7731 C.3     1  UNL1        0.0437
     21 C         138.9127  139.0449  164.3614 C.ar    1  UNL1       -0.0210
     22 C         138.7719  140.1211  165.3967 C.ar    1  UNL1       -0.0040
     23 C         138.3934  141.5130  164.9850 C.ar    1  UNL1        0.0059
     24 C         138.1556  141.8286  163.5380 C.ar    1  UNL1        0.0751
     25 C         138.2964  140.7524  162.5027 C.ar    1  UNL1        0.0272
     26 C         138.6749  139.3606  162.9144 C.ar    1  UNL1       -0.0047
     27 C         138.0015  141.3574  161.1622 C.3     1  UNL1        0.2356
     28 O         137.6785  142.8075  161.3690 O.3     1  UNL1       -0.4404
     29 C         137.7737  143.0988  162.8374 C.2     1  UNL1        0.3413
     30 O         137.5299  144.4269  163.4904 O.2     1  UNL1       -0.2449
@<TRIPOS>BOND
     1    15    16    1
     2    16     9    1
     3     9    10   ar
     4    10    11   ar
     5    11     8    1
     6     8     7    1
     7     7     1    1
     8     1     2    1
     9     2     3    1
    10     3     4    1
    11     4    19    1
    12    19    20    1
    13    20    21    1
    14    21    22   ar
    15    22    23   ar
    16    23    24   ar
    17    24    25   ar
    18    25    26   ar
    19    25    27    1
    20    27    28    1
    21    28    29    1
    22    29    30    2
    23     4     5    1
    24     5     6    1
    25    11    12   ar
    26    12    13   ar
    27    13    14   ar
    28    14    17    1
    29    17    18    3
    30    14     9   ar
    31     6     1    1
    32    26    21   ar
    33    29    24    1
@<TRIPOS>MOLECULE
*****
 30 33 0 0 0
SMALL
GASTEIGER

@<TRIPOS>ATOM
      1 N         143.0183  143.7759  162.8973 N.3     1  UNL1       -0.2700
      2 C         142.2014  143.2174  161.7700 C.3     1  UNL1        0.0897
      3 C         140.7547  143.5900  161.6359 C.3     1  UNL1        0.0897
      4 N         140.1248  144.5211  162.6291 N.3     1  UNL1       -0.2700
      5 C         140.9417  145.0796  163.7563 C.3     1  UNL1        0.0897
      6 C         142.3885  144.7070  163.8904 C.3     1  UNL1        0.0897
      7 C         144.4652  143.4033  163.0314 C.3     1  UNL1        0.0769
      8 C         144.8768  142.3289  163.9938 C.3     1  UNL1        0.0438
      9 C         142.7710  141.9878  167.3403 C.ar    1  UNL1        0.1479
     10 C         143.7508  142.5041  166.3287 C.ar    1  UNL1        0.0334
     11 C         143.8971  141.8127  165.0055 C.ar    1  UNL1       -0.0177
     12 C         143.0636  140.6051  164.6941 C.ar    1  UNL1       -0.0033
     13 C         142.0838  140.0889  165.7058 C.ar    1  UNL1        0.0130
     14 C         141.9375  140.7802  167.0289 C.ar    1  UNL1        0.1023
     15 C         143.5560  142.3455  169.7910 C.3     1  UNL1        0.2525
     16 O         142.6247  142.6792  168.6635 O.3     1  UNL1       -0.4708
     17 C         140.9577  140.2640  168.0407 C.1     1  UNL1        0.1035
     18 N         139.9779  139.7478  169.0523 N.1     1  UNL1       -0.1907
     19 C         138.6780  144.8937  162.4949 C.3     1  UNL1        0.0769
     20 C         137.6218  144.0419  163.1343 C.3     1  UNL1        0.0437
     21 C         137.9045  142.6011  163.4415 C.ar    1  UNL1       -0.0210
     22 C         138.3638  142.2028  164.8128 C.ar    1  UNL1       -0.0040
     23 C         138.6465  140.7621  165.1200 C.ar    1  UNL1        0.0059
     24 C         138.4700  139.7197  164.0560 C.ar    1  UNL1        0.0751
     25 C         138.0108  140.1180  162.6847 C.ar    1  UNL1        0.0272
     26 C         137.7281  141.5587  162.3775 C.ar    1  UNL1       -0.0047
     27 C         137.9273  138.8776  161.8454 C.3     1  UNL1        0.2356
     28 O         138.3349  137.7127  162.6980 O.3     1  UNL1       -0.4404
     29 C         138.6703  138.2331  164.0642 C.2     1  UNL1        0.3413
     30 O         139.1260  137.4113  165.2334 O.2     1  UNL1       -0.2449
@<TRIPOS>BOND
     1    15    16    1
     2    16     9    1
     3     9    10   ar
     4    10    11   ar
     5    11     8    1
     6     8     7    1
     7     7     1    1
     8     1     2    1
     9     2     3    1
    10     3     4    1
    11     4    19    1
    12    19    20    1
    13    20    21    1
    14    21    22   ar
    15    22    23   ar
    16    23    24   ar
    17    24    25   ar
    18    25    26   ar
    19    25    27    1
    20    27    28    1
    21    28    29    1
    22    29    30    2
    23     4     5    1
    24     5     6    1
    25    11    12   ar
    26    12    13   ar
    27    13    14   ar
    28    14    17    1
    29    17    18    3
    30    14     9   ar
    31     6     1    1
    32    26    21   ar
    33    29    24    1
@<TRIPOS>MOLECULE
*****
 30 33 0 0 0
SMALL
GASTEIGER

@<TRIPOS>ATOM
      1 N         137.9629  142.9923  162.9023 N.3     1  UNL1       -0.2700
      2 C         137.7457  141.9238  163.9323 C.3     1  UNL1        0.0897
      3 C         137.6864  140.4835  163.5177 C.3     1  UNL1        0.0897
      4 N         137.8445  140.1117  162.0731 N.3     1  UNL1       -0.2700
      5 C         138.0617  141.1803  161.0431 C.3     1  UNL1        0.0897
      6 C         138.1210  142.6206  161.4577 C.3     1  UNL1        0.0897
      7 C         138.0222  144.4328  163.3168 C.3     1  UNL1        0.0769
      8 C         139.2089  144.9462  164.0772 C.3     1  UNL1        0.0438
      9 C         142.5871  143.8195  162.3257 C.ar    1  UNL1        0.1479
     10 C         141.2372  144.4390  162.5348 C.ar    1  UNL1        0.0334
     11 C         140.5588  144.3267  163.8680 C.ar    1  UNL1       -0.0177
     12 C         141.2305  143.5949  164.9920 C.ar    1  UNL1       -0.0033
     13 C         142.5806  142.9754  164.7828 C.ar    1  UNL1        0.0130
     14 C         143.2588  143.0877  163.4496 C.ar    1  UNL1        0.1023
     15 C         142.5040  143.6305  159.7358 C.3     1  UNL1        0.2525
     16 O         143.2655  143.9318  160.9925 O.3     1  UNL1       -0.4708
     17 C         144.6089  142.4683  163.2404 C.1     1  UNL1        0.1035
     18 N         145.9589  141.8488  163.0312 N.1     1  UNL1       -0.1907
     19 C         137.7852  138.6713  161.6585 C.3     1  UNL1        0.0769
     20 C         139.0490  137.8717  161.5423 C.3     1  UNL1        0.0437
     21 C         140.1198  138.0057  162.5842 C.ar    1  UNL1       -0.0210
     22 C         139.8144  137.6903  164.0185 C.ar    1  UNL1       -0.0040
     23 C         140.8852  137.8243  165.0603 C.ar    1  UNL1        0.0059
     24 C         142.2614  138.2738  164.6678 C.ar    1  UNL1        0.0751
     25 C         142.5668  138.5892  163.2335 C.ar    1  UNL1        0.0272
     26 C         141.4960  138.4552  162.1917 C.ar    1  UNL1       -0.0047
     27 C         144.0048  139.0071  163.1469 C.3     1  UNL1        0.2356
     28 O         144.5881  138.9499  164.5277 O.3     1  UNL1       -0.4404
     29 C         143.5107  138.4967  165.4677 C.2     1  UNL1        0.3413
     30 O         143.6567  138.3008  166.9476 O.2     1  UNL1       -0.2449
@<TRIPOS>BOND
     1    15    16    1
     2    16     9    1
     3     9    10   ar
     4    10    11   ar
     5    11     8    1
     6     8     7    1
     7     7     1    1
     8     1     2    1
     9     2     3    1
    10     3     4    1
    11     4    19    1
    12    19    20    1
    13    20    21    1
    14    21    22   ar
    15    22    23   ar
    16    23    24   ar
    17    24    25   ar
    18    25    26   ar
    19    25    27    1
    20    27    28    1
    21    28    29    1
    22    29    30    2
    23     4     5    1
    24     5     6    1
    25    11    12   ar
    26    12    13   ar
    27    13    14   ar
    28    14    17    1
    29    17    18    3
    30    14     9   ar
    31     6     1    1
    32    26    21   ar
    33    29    24    1
@<TRIPOS>MOLECULE
*****
 30 33 0 0 0
SMALL
GASTEIGER

@<TRIPOS>ATOM
      1 N         137.7895  140.4288  161.8055 N.3     1  UNL1       -0.2700
      2 C         137.4549  140.9043  163.1882 C.3     1  UNL1        0.0897
      3 C         137.6901  142.3367  163.5661 C.3     1  UNL1        0.0897
      4 N         138.2599  143.2936  162.5613 N.3     1  UNL1       -0.2700
      5 C         138.5945  142.8182  161.1786 C.3     1  UNL1        0.0897
      6 C         138.3593  141.3858  160.8007 C.3     1  UNL1        0.0897
      7 C         137.5543  138.9964  161.4275 C.3     1  UNL1        0.0769
      8 C         138.7061  138.0371  161.3696 C.3     1  UNL1        0.0438
      9 C         142.2335  138.3533  163.1605 C.ar    1  UNL1        0.1479
     10 C         141.1855  138.3324  162.0876 C.ar    1  UNL1        0.0334
     11 C         139.7541  138.0580  162.4425 C.ar    1  UNL1       -0.0177
     12 C         139.3708  137.8046  163.8704 C.ar    1  UNL1       -0.0033
     13 C         140.4189  137.8256  164.9433 C.ar    1  UNL1        0.0130
     14 C         141.8502  138.0998  164.5884 C.ar    1  UNL1        0.1023
     15 C         144.1763  138.2890  161.4366 C.3     1  UNL1        0.2525
     16 O         143.6649  138.6276  162.8055 O.3     1  UNL1       -0.4708
     17 C         142.8983  138.1208  165.6613 C.1     1  UNL1        0.1035
     18 N         143.9463  138.1417  166.7342 N.1     1  UNL1       -0.1907
     19 C         138.4951  144.7261  162.9393 C.3     1  UNL1        0.0769
     20 C         139.8492  145.3408  162.7434 C.3     1  UNL1        0.0437
     21 C         141.0834  144.5038  162.9050 C.ar    1  UNL1       -0.0210
     22 C         142.1360  144.5054  161.8363 C.ar    1  UNL1       -0.0040
     23 C         143.3701  143.6684  161.9979 C.ar    1  UNL1        0.0059
     24 C         143.5517  142.8297  163.2282 C.ar    1  UNL1        0.0751
     25 C         142.4992  142.8281  164.2969 C.ar    1  UNL1        0.0272
     26 C         141.2651  143.6651  164.1353 C.ar    1  UNL1       -0.0047
     27 C         142.9514  141.9075  165.3914 C.3     1  UNL1        0.2356
     28 O         144.2834  141.3401  164.9992 O.3     1  UNL1       -0.4404
     29 C         144.6545  141.9101  163.6622 C.2     1  UNL1        0.3413
     30 O         145.9081  141.6127  162.8942 O.2     1  UNL1       -0.2449
@<TRIPOS>BOND
     1    15    16    1
     2    16     9    1
     3     9    10   ar
     4    10    11   ar
     5    11     8    1
     6     8     7    1
     7     7     1    1
     8     1     2    1
     9     2     3    1
    10     3     4    1
    11     4    19    1
    12    19    20    1
    13    20    21    1
    14    21    22   ar
    15    22    23   ar
    16    23    24   ar
    17    24    25   ar
    18    25    26   ar
    19    25    27    1
    20    27    28    1
    21    28    29    1
    22    29    30    2
    23     4     5    1
    24     5     6    1
    25    11    12   ar
    26    12    13   ar
    27    13    14   ar
    28    14    17    1
    29    17    18    3
    30    14     9   ar
    31     6     1    1
    32    26    21   ar
    33    29    24    1
@<TRIPOS>MOLECULE
*****
 30 33 0 0 0
SMALL
GASTEIGER

@<TRIPOS>ATOM
      1 N         141.8332  137.9732  164.3222 N.3     1  UNL1       -0.2700
      2 C         142.6050  138.5067  165.4926 C.3     1  UNL1        0.0897
      3 C         143.7676  139.4273  165.2675 C.3     1  UNL1        0.0897
      4 N         144.1585  139.8144  163.8721 N.3     1  UNL1       -0.2700
      5 C         143.3868  139.2810  162.7017 C.3     1  UNL1        0.0897
      6 C         142.2242  138.3604  162.9268 C.3     1  UNL1        0.0897
      7 C         140.6705  137.0526  164.5473 C.3     1  UNL1        0.0769
      8 C         139.3337  137.6131  164.9329 C.3     1  UNL1        0.0438
      9 C         138.0047  140.6518  162.7534 C.ar    1  UNL1        0.1479
     10 C         138.3800  139.2584  163.1627 C.ar    1  UNL1        0.0334
     11 C         138.9584  139.0065  164.5237 C.ar    1  UNL1       -0.0177
     12 C         139.1615  140.1481  165.4753 C.ar    1  UNL1       -0.0033
     13 C         138.7862  141.5416  165.0659 C.ar    1  UNL1        0.0130
     14 C         138.2078  141.7934  163.7050 C.ar    1  UNL1        0.1023
     15 C         137.7479  139.9770  160.2577 C.3     1  UNL1        0.2525
     16 O         137.4263  140.9037  161.3925 O.3     1  UNL1       -0.4708
     17 C         137.8325  143.1869  163.2957 C.1     1  UNL1        0.1035
     18 N         137.4572  144.5803  162.8864 N.1     1  UNL1       -0.1907
     19 C         145.3213  140.7351  163.6470 C.3     1  UNL1        0.0769
     20 C         145.2190  142.1808  164.0335 C.3     1  UNL1        0.0437
     21 C         144.1308  143.0364  163.4557 C.ar    1  UNL1       -0.0210
     22 C         143.4233  144.0362  164.3217 C.ar    1  UNL1       -0.0040
     23 C         142.3352  144.8918  163.7439 C.ar    1  UNL1        0.0059
     24 C         141.9546  144.7476  162.3001 C.ar    1  UNL1        0.0751
     25 C         142.6620  143.7478  161.4342 C.ar    1  UNL1        0.0272
     26 C         143.7501  142.8922  162.0120 C.ar    1  UNL1       -0.0047
     27 C         142.0741  143.8295  160.0567 C.3     1  UNL1        0.2356
     28 O         141.0033  144.8799  160.0712 O.3     1  UNL1       -0.4404
     29 C         140.9294  145.4473  161.4577 C.2     1  UNL1        0.3413
     30 O         139.9945  146.5251  161.9206 O.2     1  UNL1       -0.2449
@<TRIPOS>BOND
     1    15    16    1
     2    16     9    1
     3     9    10   ar
     4    10    11   ar
     5    11     8    1
     6     8     7    1
     7     7     1    1
     8     1     2    1
     9     2     3    1
    10     3     4    1
    11     4    19    1
    12    19    20    1
    13    20    21    1
    14    21    22   ar
    15    22    23   ar
    16    23    24   ar
    17    24    25   ar
    18    25    26   ar
    19    25    27    1
    20    27    28    1
    21    28    29    1
    22    29    30    2
    23     4     5    1
    24     5     6    1
    25    11    12   ar
    26    12    13   ar
    27    13    14   ar
    28    14    17    1
    29    17    18    3
    30    14     9   ar
    31     6     1    1
    32    26    21   ar
    33    29    24    1
@<TRIPOS>MOLECULE
*****
 30 33 0 0 0
SMALL
GASTEIGER

@<TRIPOS>ATOM
      1 N         139.6602  138.6404  164.0029 N.3     1  UNL1       -0.2700
      2 C         139.6171  139.2268  162.6230 C.3     1  UNL1        0.0897
      3 C         140.7786  139.0403  161.6923 C.3     1  UNL1        0.0897
      4 N         141.9831  138.2674  162.1415 N.3     1  UNL1       -0.2700
      5 C         142.0261  137.6810  163.5214 C.3     1  UNL1        0.0897
      6 C         140.8647  137.8675  164.4521 C.3     1  UNL1        0.0897
      7 C         138.4988  138.8269  164.9337 C.3     1  UNL1        0.0769
      8 C         138.3664  140.0955  165.7231 C.3     1  UNL1        0.0438
      9 C         141.0498  140.6255  168.5986 C.ar    1  UNL1        0.1479
     10 C         139.8727  140.0880  167.8400 C.ar    1  UNL1        0.0334
     11 C         139.5435  140.6329  166.4817 C.ar    1  UNL1       -0.0177
     12 C         140.3914  141.7154  165.8822 C.ar    1  UNL1       -0.0033
     13 C         141.5685  142.2528  166.6409 C.ar    1  UNL1        0.0130
     14 C         141.8977  141.7079  167.9991 C.ar    1  UNL1        0.1023
     15 C         140.8332  140.7469  171.1848 C.3     1  UNL1        0.2525
     16 O         141.3791  140.0805  169.9568 O.3     1  UNL1       -0.4708
     17 C         143.0748  142.2454  168.7578 C.1     1  UNL1        0.1035
     18 N         144.2519  142.7828  169.5164 N.1     1  UNL1       -0.1907
     19 C         143.1445  138.0809  161.2107 C.3     1  UNL1        0.0769
     20 C         144.1090  139.2063  160.9800 C.3     1  UNL1        0.0437
     21 C         144.2217  140.3152  161.9839 C.ar    1  UNL1       -0.0210
     22 C         144.8257  140.0490  163.3308 C.ar    1  UNL1       -0.0040
     23 C         144.9383  141.1579  164.3346 C.ar    1  UNL1        0.0059
     24 C         144.4470  142.5329  163.9915 C.ar    1  UNL1        0.0751
     25 C         143.8430  142.7991  162.6446 C.ar    1  UNL1        0.0272
     26 C         143.7303  141.6903  161.6408 C.ar    1  UNL1       -0.0047
     27 C         143.4484  144.2453  162.5912 C.3     1  UNL1        0.2356
     28 O         143.8085  144.8729  163.9051 O.3     1  UNL1       -0.4404
     29 C         144.4257  143.8146  164.7706 C.2     1  UNL1        0.3413
     30 O         144.9326  144.0046  166.1695 O.2     1  UNL1       -0.2449
@<TRIPOS>BOND
     1    15    16    1
     2    16     9    1
     3     9    10   ar
     4    10    11   ar
     5    11     8    1
     6     8     7    1
     7     7     1    1
     8     1     2    1
     9     2     3    1
    10     3     4    1
    11     4    19    1
    12    19    20    1
    13    20    21    1
    14    21    22   ar
    15    22    23   ar
    16    23    24   ar
    17    24    25   ar
    18    25    26   ar
    19    25    27    1
    20    27    28    1
    21    28    29    1
    22    29    30    2
    23     4     5    1
    24     5     6    1
    25    11    12   ar
    26    12    13   ar
    27    13    14   ar
    28    14    17    1
    29    17    18    3
    30    14     9   ar
    31     6     1    1
    32    26    21   ar
    33    29    24    1
@<TRIPOS>MOLECULE
*****
 30 33 0 0 0
SMALL
GASTEIGER

@<TRIPOS>ATOM
      1 N         141.5750  138.2216  161.9480 N.3     1  UNL1       -0.2700
      2 C         141.4009  137.3266  163.1390 C.3     1  UNL1        0.0897
      3 C         140.3372  137.6263  164.1532 C.3     1  UNL1        0.0897
      4 N         139.4476  138.8210  163.9764 N.3     1  UNL1       -0.2700
      5 C         139.6217  139.7161  162.7854 C.3     1  UNL1        0.0897
      6 C         140.6854  139.4164  161.7712 C.3     1  UNL1        0.0897
      7 C         142.6387  137.9219  160.9336 C.3     1  UNL1        0.0769
      8 C         143.9816  138.5820  161.0378 C.3     1  UNL1        0.0438
      9 C         144.2891  142.2257  162.5802 C.ar    1  UNL1        0.1479
     10 C         144.0722  141.1188  161.5914 C.ar    1  UNL1        0.0334
     11 C         144.1985  139.6889  162.0266 C.ar    1  UNL1       -0.0177
     12 C         144.5419  139.3659  163.4506 C.ar    1  UNL1       -0.0033
     13 C         144.7588  140.4728  164.4394 C.ar    1  UNL1        0.0130
     14 C         144.6324  141.9027  164.0042 C.ar    1  UNL1        0.1023
     15 C         142.8102  144.2999  162.0694 C.3     1  UNL1        0.2525
     16 O         144.1627  143.6557  162.1449 O.3     1  UNL1       -0.4708
     17 C         144.8494  143.0097  164.9930 C.1     1  UNL1        0.1035
     18 N         145.0663  144.1166  165.9817 N.1     1  UNL1       -0.1907
     19 C         138.3839  139.1207  164.9907 C.3     1  UNL1        0.0769
     20 C         138.4106  140.4170  165.7450 C.3     1  UNL1        0.0437
     21 C         139.6202  140.7921  166.5489 C.ar    1  UNL1       -0.0210
     22 C         140.3240  142.0899  166.2838 C.ar    1  UNL1       -0.0040
     23 C         141.5335  142.4650  167.0877 C.ar    1  UNL1        0.0059
     24 C         142.0392  141.5423  168.1568 C.ar    1  UNL1        0.0751
     25 C         141.3354  140.2445  168.4219 C.ar    1  UNL1        0.0272
     26 C         140.1259  139.8694  167.6180 C.ar    1  UNL1       -0.0047
     27 C         142.0598  139.5428  169.5323 C.3     1  UNL1        0.2356
     28 O         143.2113  140.4069  169.9534 O.3     1  UNL1       -0.4404
     29 C         143.1986  141.6427  169.1033 C.2     1  UNL1        0.3413
     30 O         144.1740  142.7793  169.1853 O.2     1  UNL1       -0.2449
@<TRIPOS>BOND
     1    15    16    1
     2    16     9    1
     3     9    10   ar
     4    10    11   ar
     5    11     8    1
     6     8     7    1
     7     7     1    1
     8     1     2    1
     9     2     3    1
    10     3     4    1
    11     4    19    1
    12    19    20    1
    13    20    21    1
    14    21    22   ar
    15    22    23   ar
    16    23    24   ar
    17    24    25   ar
    18    25    26   ar
    19    25    27    1
    20    27    28    1
    21    28    29    1
    22    29    30    2
    23     4     5    1
    24     5     6    1
    25    11    12   ar
    26    12    13   ar
    27    13    14   ar
    28    14    17    1
    29    17    18    3
    30    14     9   ar
    31     6     1    1
    32    26    21   ar
    33    29    24    1
@<TRIPOS>MOLECULE
*****
 30 33 0 0 0
SMALL
GASTEIGER

@<TRIPOS>ATOM
      1 N         143.6905  139.3426  163.8769 N.3     1  UNL1       -0.2700
      2 C         143.2422  139.2833  165.3071 C.3     1  UNL1        0.0897
      3 C         141.8948  138.7194  165.6479 C.3     1  UNL1        0.0897
      4 N         140.9956  138.2146  164.5585 N.3     1  UNL1       -0.2700
      5 C         141.4439  138.2739  163.1283 C.3     1  UNL1        0.0897
      6 C         142.7914  138.8379  162.7875 C.3     1  UNL1        0.0897
      7 C         145.0381  139.9066  163.5361 C.3     1  UNL1        0.0769
      8 C         145.2279  141.3916  163.4431 C.3     1  UNL1        0.0438
      9 C         143.2367  143.3207  160.6034 C.ar    1  UNL1        0.1479
     10 C         144.2710  142.4736  161.2835 C.ar    1  UNL1        0.0334
     11 C         144.1936  142.2388  162.7630 C.ar    1  UNL1       -0.0177
     12 C         143.0818  142.8511  163.5624 C.ar    1  UNL1       -0.0033
     13 C         142.0475  143.6983  162.8822 C.ar    1  UNL1        0.0130
     14 C         142.1250  143.9331  161.4028 C.ar    1  UNL1        0.1023
     15 C         144.3006  142.7892  158.2935 C.3     1  UNL1        0.2525
     16 O         143.3142  143.5556  159.1239 O.3     1  UNL1       -0.4708
     17 C         141.0906  144.7802  160.7226 C.1     1  UNL1        0.1035
     18 N         140.0563  145.6274  160.0426 N.1     1  UNL1       -0.1907
     19 C         139.6481  137.6506  164.8994 C.3     1  UNL1        0.0769
     20 C         138.5506  138.5602  165.3665 C.3     1  UNL1        0.0437
     21 C         138.4681  139.9647  164.8462 C.ar    1  UNL1       -0.0210
     22 C         137.7779  140.2426  163.5438 C.ar    1  UNL1       -0.0040
     23 C         137.6953  141.6471  163.0235 C.ar    1  UNL1        0.0059
     24 C         138.3030  142.7735  163.8057 C.ar    1  UNL1        0.0751
     25 C         138.9933  142.4956  165.1080 C.ar    1  UNL1        0.0272
     26 C         139.0758  141.0912  165.6283 C.ar    1  UNL1       -0.0047
     27 C         139.4949  143.7994  165.6543 C.3     1  UNL1        0.2356
     28 O         139.1147  144.8832  164.6894 O.3     1  UNL1       -0.4404
     29 C         138.3781  144.2492  163.5469 C.2     1  UNL1        0.3413
     30 O         137.8153  144.9651  162.3549 O.2     1  UNL1       -0.2449
@<TRIPOS>BOND
     1    15    16    1
     2    16     9    1
     3     9    10   ar
     4    10    11   ar
     5    11     8    1
     6     8     7    1
     7     7     1    1
     8     1     2    1
     9     2     3    1
    10     3     4    1
    11     4    19    1
    12    19    20    1
    13    20    21    1
    14    21    22   ar
    15    22    23   ar
    16    23    24   ar
    17    24    25   ar
    18    25    26   ar
    19    25    27    1
    20    27    28    1
    21    28    29    1
    22    29    30    2
    23     4     5    1
    24     5     6    1
    25    11    12   ar
    26    12    13   ar
    27    13    14   ar
    28    14    17    1
    29    17    18    3
    30    14     9   ar
    31     6     1    1
    32    26    21   ar
    33    29    24    1
@<TRIPOS>MOLECULE
*****
 30 33 0 0 0
SMALL
GASTEIGER

@<TRIPOS>ATOM
      1 N         144.7966  141.6009  163.7812 N.3     1  UNL1       -0.2700
      2 C         144.4502  141.7976  162.3351 C.3     1  UNL1        0.0897
      3 C         144.0896  140.6170  161.4830 C.3     1  UNL1        0.0897
      4 N         144.0755  139.2397  162.0770 N.3     1  UNL1       -0.2700
      5 C         144.4219  139.0430  163.5231 C.3     1  UNL1        0.0897
      6 C         144.7825  140.2236  164.3752 C.3     1  UNL1        0.0897
      7 C         145.1572  142.7815  164.6334 C.3     1  UNL1        0.0769
      8 C         144.0835  143.5440  165.3515 C.3     1  UNL1        0.0438
      9 C         142.2892  141.6722  168.3560 C.ar    1  UNL1        0.1479
     10 C         143.3282  142.4075  167.5624 C.ar    1  UNL1        0.0334
     11 C         143.0445  142.8088  166.1451 C.ar    1  UNL1       -0.0177
     12 C         141.7218  142.4749  165.5215 C.ar    1  UNL1       -0.0033
     13 C         140.6827  141.7396  166.3152 C.ar    1  UNL1        0.0130
     14 C         140.9664  141.3383  167.7324 C.ar    1  UNL1        0.1023
     15 C         142.2026  142.1882  170.9009 C.3     1  UNL1        0.2525
     16 O         142.5728  141.2709  169.7732 O.3     1  UNL1       -0.4708
     17 C         139.9274  140.6031  168.5260 C.1     1  UNL1        0.1035
     18 N         138.8883  139.8678  169.3196 N.1     1  UNL1       -0.1907
     19 C         143.7149  138.0590  161.2248 C.3     1  UNL1        0.0769
     20 C         142.2785  137.6544  161.0730 C.3     1  UNL1        0.0437
     21 C         141.2746  138.0461  162.1166 C.ar    1  UNL1       -0.0210
     22 C         141.0173  137.1429  163.2862 C.ar    1  UNL1       -0.0040
     23 C         140.0135  137.5346  164.3296 C.ar    1  UNL1        0.0059
     24 C         139.2670  138.8295  164.2035 C.ar    1  UNL1        0.0751
     25 C         139.5242  139.7327  163.0339 C.ar    1  UNL1        0.0272
     26 C         140.5281  139.3410  161.9905 C.ar    1  UNL1       -0.0047
     27 C         138.6426  140.9379  163.1763 C.3     1  UNL1        0.2356
     28 O         137.8404  140.7795  164.4338 O.3     1  UNL1       -0.4404
     29 C         138.2263  139.4764  165.0687 C.2     1  UNL1        0.3413
     30 O         137.6693  138.9183  166.3448 O.2     1  UNL1       -0.2449
@<TRIPOS>BOND
     1    15    16    1
     2    16     9    1
     3     9    10   ar
     4    10    11   ar
     5    11     8    1
     6     8     7    1
     7     7     1    1
     8     1     2    1
     9     2     3    1
    10     3     4    1
    11     4    19    1
    12    19    20    1
    13    20    21    1
    14    21    22   ar
    15    22    23   ar
    16    23    24   ar
    17    24    25   ar
    18    25    26   ar
    19    25    27    1
    20    27    28    1
    21    28    29    1
    22    29    30    2
    23     4     5    1
    24     5     6    1
    25    11    12   ar
    26    12    13   ar
    27    13    14   ar
    28    14    17    1
    29    17    18    3
    30    14     9   ar
    31     6     1    1
    32    26    21   ar
    33    29    24    1
