@<TRIPOS>MOLECULE
*****
 26 28 0 0 0
SMALL
GASTEIGER

@<TRIPOS>ATOM
      1 O         141.4674  141.5387  166.3359 O.3     1  UNL1       -0.3545
      2 C         142.1996  142.6191  165.5966 C.3     1  UNL1        0.1297
      3 C         143.6749  142.7993  165.7993 C.3     1  UNL1        0.0309
      4 C         144.4071  143.8798  165.0600 C.3     1  UNL1        0.0026
      5 C         143.6640  144.7800  164.1180 C.3     1  UNL1        0.0015
      6 C         142.1887  144.5998  163.9153 C.3     1  UNL1        0.0184
      7 C         141.4566  143.5194  164.6546 C.3     1  UNL1        0.0848
      8 N         139.9812  143.3392  164.4519 N.3     1  UNL1       -0.2697
      9 C         138.9070  144.2818  164.9074 C.3     1  UNL1        0.0747
     10 C         137.5831  143.7099  164.4952 C.3     1  UNL1        0.0480
     11 C         137.8390  142.4137  163.7848 C.3     1  UNL1        0.1278
     12 O         136.7959  141.5061  163.2032 O.3     1  UNL1       -0.3830
     13 C         139.3211  142.1847  163.7580 C.3     1  UNL1        0.1017
     14 H         135.9161  141.8852  163.3556 H       1  UNL1        0.2104
     15 C         142.2002  140.6718  167.3164 C.3     1  UNL1        0.1468
     16 C         142.6447  139.2964  166.9157 C.3     1  UNL1        0.0585
     17 C         143.3003  138.3201  162.5720 C.ar    1  UNL1        0.1724
     18 C         144.3599  139.0474  163.3455 C.ar    1  UNL1        0.0397
     19 C         144.1413  139.3728  164.7934 C.ar    1  UNL1       -0.0009
     20 C         142.8632  138.9710  165.4678 C.ar    1  UNL1       -0.0165
     21 C         141.8036  138.2437  164.6943 C.ar    1  UNL1        0.0359
     22 C         142.0222  137.9183  163.2465 C.ar    1  UNL1        0.1721
     23 C         143.5147  139.0908  160.1002 C.3     1  UNL1        0.2526
     24 O         143.5188  137.9947  161.1242 O.3     1  UNL1       -0.4684
     25 O         140.9625  137.1910  162.4730 O.3     1  UNL1       -0.4684
     26 C         139.8846  137.9619  161.7702 C.3     1  UNL1        0.2526
@<TRIPOS>BOND
     1    23    24    1
     2    24    17    1
     3    17    18   ar
     4    18    19   ar
     5    19    20   ar
     6    20    16    1
     7    16    15    1
     8    15     1    1
     9     2     1    1
    10     2     3    1
    11     3     4    1
    12     4     5    1
    13     5     6    1
    14     6     7    1
    15     7     8    1
    16     8     9    1
    17     9    10    1
    18    10    11    1
    19    11    12    1
    20    11    13    1
    21    20    21   ar
    22    21    22   ar
    23    22    25    1
    24    25    26    1
    25    22    17   ar
    26     7     2    1
    27    13     8    1
    28    12    14    1
@<TRIPOS>MOLECULE
*****
 26 28 0 0 0
SMALL
GASTEIGER

@<TRIPOS>ATOM
      1 O         138.4314  140.1282  165.9160 O.3     1  UNL1       -0.3545
      2 C         139.7541  140.7497  166.2538 C.3     1  UNL1        0.1297
      3 C         140.6504  140.1016  167.2670 C.3     1  UNL1        0.0309
      4 C         141.9732  140.7231  167.6048 C.3     1  UNL1        0.0026
      5 C         142.3996  141.9928  166.9294 C.3     1  UNL1        0.0015
      6 C         141.5032  142.6409  165.9162 C.3     1  UNL1        0.0184
      7 C         140.1805  142.0194  165.5784 C.3     1  UNL1        0.0848
      8 N         139.2841  142.6676  164.5652 N.3     1  UNL1       -0.2697
      9 C         138.4349  143.8835  164.7891 C.3     1  UNL1        0.0747
     10 C         137.7056  144.1810  163.5125 C.3     1  UNL1        0.0480
     11 C         138.1041  143.1488  162.4997 C.3     1  UNL1        0.1278
     12 O         137.6132  143.0664  161.0847 O.3     1  UNL1       -0.3830
     13 C         139.0797  142.2135  163.1503 C.3     1  UNL1        0.1017
     14 H         136.9896  143.7900  160.9162 H       1  UNL1        0.2104
     15 C         138.0758  138.7775  166.4629 C.3     1  UNL1        0.1468
     16 C         138.4133  137.5406  165.6844 C.3     1  UNL1        0.0585
     17 C         141.1998  137.7905  162.1598 C.ar    1  UNL1        0.1724
     18 C         141.7513  137.5766  163.5382 C.ar    1  UNL1        0.0397
     19 C         140.8225  137.4933  164.7131 C.ar    1  UNL1       -0.0009
     20 C         139.3421  137.6239  164.5096 C.ar    1  UNL1       -0.0165
     21 C         138.7906  137.8378  163.1312 C.ar    1  UNL1        0.0359
     22 C         139.7194  137.9211  161.9563 C.ar    1  UNL1        0.1721
     23 C         143.6126  137.8936  161.2020 C.3     1  UNL1        0.2526
     24 O         142.1286  137.8739  160.9849 O.3     1  UNL1       -0.4684
     25 O         139.1678  138.1350  160.5778 O.3     1  UNL1       -0.4684
     26 C         138.7314  139.5044  160.1488 C.3     1  UNL1        0.2526
@<TRIPOS>BOND
     1    23    24    1
     2    24    17    1
     3    17    18   ar
     4    18    19   ar
     5    19    20   ar
     6    20    16    1
     7    16    15    1
     8    15     1    1
     9     2     1    1
    10     2     3    1
    11     3     4    1
    12     4     5    1
    13     5     6    1
    14     6     7    1
    15     7     8    1
    16     8     9    1
    17     9    10    1
    18    10    11    1
    19    11    12    1
    20    11    13    1
    21    20    21   ar
    22    21    22   ar
    23    22    25    1
    24    25    26    1
    25    22    17   ar
    26     7     2    1
    27    13     8    1
    28    12    14    1
@<TRIPOS>MOLECULE
*****
 26 28 0 0 0
SMALL
GASTEIGER

@<TRIPOS>ATOM
      1 O         142.5292  139.9722  166.7312 O.3     1  UNL1       -0.3545
      2 C         141.1441  139.4818  166.4296 C.3     1  UNL1        0.1297
      3 C         140.9244  138.4834  165.3320 C.3     1  UNL1        0.0309
      4 C         139.5392  137.9929  165.0304 C.3     1  UNL1        0.0026
      5 C         138.3738  138.5010  165.8264 C.3     1  UNL1        0.0015
      6 C         138.5936  139.4995  166.9241 C.3     1  UNL1        0.0184
      7 C         139.9787  139.9899  167.2256 C.3     1  UNL1        0.0848
      8 N         140.1984  140.9884  168.3233 N.3     1  UNL1       -0.2697
      9 C         140.5099  142.4444  168.1414 C.3     1  UNL1        0.0747
     10 C         140.6493  143.0620  169.5012 C.3     1  UNL1        0.0480
     11 C         140.4240  141.9877  170.5236 C.3     1  UNL1        0.1278
     12 O         140.4693  142.1640  172.0125 O.3     1  UNL1       -0.3830
     13 C         140.1453  140.7061  169.7955 C.3     1  UNL1        0.1017
     14 H         140.6690  143.0897  172.2225 H       1  UNL1        0.2104
     15 C         143.2995  140.7302  165.6909 C.3     1  UNL1        0.1468
     16 C         143.4846  142.2125  165.8265 C.3     1  UNL1        0.0585
     17 C         141.1905  145.0196  163.1605 C.ar    1  UNL1        0.1724
     18 C         142.6495  145.2541  163.4179 C.ar    1  UNL1        0.0397
     19 C         143.4142  144.3184  164.3066 C.ar    1  UNL1       -0.0009
     20 C         142.7199  143.1482  164.9379 C.ar    1  UNL1       -0.0165
     21 C         141.2609  142.9137  164.6805 C.ar    1  UNL1        0.0359
     22 C         140.4962  143.8494  163.7918 C.ar    1  UNL1        0.1721
     23 C         140.1953  145.6021  160.8324 C.3     1  UNL1        0.2526
     24 O         140.4258  145.9553  162.2719 O.3     1  UNL1       -0.4684
     25 O         139.0371  143.6149  163.5344 O.3     1  UNL1       -0.4684
     26 C         138.0074  144.2545  164.4179 C.3     1  UNL1        0.2526
@<TRIPOS>BOND
     1    23    24    1
     2    24    17    1
     3    17    18   ar
     4    18    19   ar
     5    19    20   ar
     6    20    16    1
     7    16    15    1
     8    15     1    1
     9     2     1    1
    10     2     3    1
    11     3     4    1
    12     4     5    1
    13     5     6    1
    14     6     7    1
    15     7     8    1
    16     8     9    1
    17     9    10    1
    18    10    11    1
    19    11    12    1
    20    11    13    1
    21    20    21   ar
    22    21    22   ar
    23    22    25    1
    24    25    26    1
    25    22    17   ar
    26     7     2    1
    27    13     8    1
    28    12    14    1
@<TRIPOS>MOLECULE
*****
 26 28 0 0 0
SMALL
GASTEIGER

@<TRIPOS>ATOM
      1 O         138.1246  139.1638  165.2808 O.3     1  UNL1       -0.3545
      2 C         138.8984  140.0113  166.2468 C.3     1  UNL1        0.1297
      3 C         139.0294  139.5863  167.6793 C.3     1  UNL1        0.0309
      4 C         139.8032  140.4339  168.6453 C.3     1  UNL1        0.0026
      5 C         140.4460  141.7063  168.1786 C.3     1  UNL1        0.0015
      6 C         140.3149  142.1312  166.7460 C.3     1  UNL1        0.0184
      7 C         139.5411  141.2837  165.7801 C.3     1  UNL1        0.0848
      8 N         139.4101  141.7086  164.3475 N.3     1  UNL1       -0.2697
      9 C         140.4616  141.5697  163.2869 C.3     1  UNL1        0.0747
     10 C         139.9059  142.1223  162.0079 C.3     1  UNL1        0.0480
     11 C         138.5108  142.6028  162.2780 C.3     1  UNL1        0.1278
     12 O         137.5847  143.2289  161.2779 O.3     1  UNL1       -0.3830
     13 C         138.2044  142.3471  163.7240 C.3     1  UNL1        0.1017
     14 H         138.0263  143.2792  160.4157 H       1  UNL1        0.2104
     15 C         138.8503  138.2790  164.3111 C.3     1  UNL1        0.1468
     16 C         140.0659  137.5196  164.7535 C.3     1  UNL1        0.0585
     17 C         144.1508  139.3540  164.3072 C.ar    1  UNL1        0.1724
     18 C         143.4866  139.3202  165.6517 C.ar    1  UNL1        0.0397
     19 C         142.1250  138.7088  165.8004 C.ar    1  UNL1       -0.0009
     20 C         141.4275  138.1311  164.6047 C.ar    1  UNL1       -0.0165
     21 C         142.0917  138.1648  163.2602 C.ar    1  UNL1        0.0359
     22 C         143.4533  138.7763  163.1115 C.ar    1  UNL1        0.1721
     23 C         145.6486  141.4041  163.7566 C.3     1  UNL1        0.2526
     24 O         145.5124  139.9654  164.1584 O.3     1  UNL1       -0.4684
     25 O         144.1175  138.8100  161.7669 O.3     1  UNL1       -0.4684
     26 C         143.6838  139.8148  160.7411 C.3     1  UNL1        0.2526
@<TRIPOS>BOND
     1    23    24    1
     2    24    17    1
     3    17    18   ar
     4    18    19   ar
     5    19    20   ar
     6    20    16    1
     7    16    15    1
     8    15     1    1
     9     2     1    1
    10     2     3    1
    11     3     4    1
    12     4     5    1
    13     5     6    1
    14     6     7    1
    15     7     8    1
    16     8     9    1
    17     9    10    1
    18    10    11    1
    19    11    12    1
    20    11    13    1
    21    20    21   ar
    22    21    22   ar
    23    22    25    1
    24    25    26    1
    25    22    17   ar
    26     7     2    1
    27    13     8    1
    28    12    14    1
@<TRIPOS>MOLECULE
*****
 26 28 0 0 0
SMALL
GASTEIGER

@<TRIPOS>ATOM
      1 O         141.6637  140.4027  166.7276 O.3     1  UNL1       -0.3545
      2 C         142.5594  141.1286  165.7679 C.3     1  UNL1        0.1297
      3 C         143.3047  142.3508  166.2158 C.3     1  UNL1        0.0309
      4 C         144.2005  143.0767  165.2561 C.3     1  UNL1        0.0026
      5 C         144.3508  142.5803  163.8486 C.3     1  UNL1        0.0015
      6 C         143.6054  141.3580  163.4008 C.3     1  UNL1        0.0184
      7 C         142.7097  140.6322  164.3604 C.3     1  UNL1        0.0848
      8 N         141.9643  139.4099  163.9126 N.3     1  UNL1       -0.2697
      9 C         142.1755  138.0137  164.4185 C.3     1  UNL1        0.0747
     10 C         141.2186  137.1102  163.6988 C.3     1  UNL1        0.0480
     11 C         140.4159  137.9480  162.7481 C.3     1  UNL1        0.1278
     12 O         139.3411  137.4517  161.8270 O.3     1  UNL1       -0.3830
     13 C         140.8768  139.3693  162.8802 C.3     1  UNL1        0.1017
     14 H         139.2382  136.4935  161.9369 H       1  UNL1        0.2104
     15 C         140.2831  140.9206  167.0030 C.3     1  UNL1        0.1468
     16 C         139.2502  140.9177  165.9154 C.3     1  UNL1        0.0585
     17 C         138.8154  144.4916  163.2157 C.ar    1  UNL1        0.1724
     18 C         139.4547  144.6435  164.5640 C.ar    1  UNL1        0.0397
     19 C         139.5997  143.4522  165.4639 C.ar    1  UNL1       -0.0009
     20 C         139.1052  142.1090  165.0155 C.ar    1  UNL1       -0.0165
     21 C         138.4659  141.9570  163.6671 C.ar    1  UNL1        0.0359
     22 C         138.3209  143.1483  162.7672 C.ar    1  UNL1        0.1721
     23 C         139.8474  146.1740  161.5263 C.3     1  UNL1        0.2526
     24 O         138.6704  145.6828  162.3158 O.3     1  UNL1       -0.4684
     25 O         137.6815  142.9963  161.4188 O.3     1  UNL1       -0.4684
     26 C         138.5032  142.5530  160.2448 C.3     1  UNL1        0.2526
@<TRIPOS>BOND
     1    23    24    1
     2    24    17    1
     3    17    18   ar
     4    18    19   ar
     5    19    20   ar
     6    20    16    1
     7    16    15    1
     8    15     1    1
     9     2     1    1
    10     2     3    1
    11     3     4    1
    12     4     5    1
    13     5     6    1
    14     6     7    1
    15     7     8    1
    16     8     9    1
    17     9    10    1
    18    10    11    1
    19    11    12    1
    20    11    13    1
    21    20    21   ar
    22    21    22   ar
    23    22    25    1
    24    25    26    1
    25    22    17   ar
    26     7     2    1
    27    13     8    1
    28    12    14    1
@<TRIPOS>MOLECULE
*****
 26 28 0 0 0
SMALL
GASTEIGER

@<TRIPOS>ATOM
      1 O         141.0382  139.5971  167.4087 O.3     1  UNL1       -0.3545
      2 C         141.9406  140.2938  166.4338 C.3     1  UNL1        0.1297
      3 C         142.2818  139.6394  165.1280 C.3     1  UNL1        0.0309
      4 C         143.1842  140.3361  164.1531 C.3     1  UNL1        0.0026
      5 C         143.7454  141.6872  164.4841 C.3     1  UNL1        0.0015
      6 C         143.4041  142.3416  165.7901 C.3     1  UNL1        0.0184
      7 C         142.5018  141.6449  166.7649 C.3     1  UNL1        0.0848
      8 N         142.1605  142.2993  168.0708 N.3     1  UNL1       -0.2697
      9 C         143.0482  142.3751  169.2775 C.3     1  UNL1        0.0747
     10 C         142.3079  143.1154  170.3517 C.3     1  UNL1        0.0480
     11 C         140.9627  143.4973  169.8089 C.3     1  UNL1        0.1278
     12 O         139.8960  144.2511  170.5462 O.3     1  UNL1       -0.3830
     13 C         140.8716  142.9929  168.3992 C.3     1  UNL1        0.1017
     14 H         140.2072  144.4598  171.4409 H       1  UNL1        0.2104
     15 C         139.5906  139.9804  167.4967 C.3     1  UNL1        0.1468
     16 C         138.5500  139.1421  166.8153 C.3     1  UNL1        0.0585
     17 C         138.3315  139.0399  162.3218 C.ar    1  UNL1        0.1724
     18 C         138.9059  137.8746  163.0714 C.ar    1  UNL1        0.0397
     19 C         138.9788  137.9087  164.5693 C.ar    1  UNL1       -0.0009
     20 C         138.4772  139.1080  165.3174 C.ar    1  UNL1       -0.0165
     21 C         137.9028  140.2734  164.5678 C.ar    1  UNL1        0.0359
     22 C         137.8300  140.2393  163.0700 C.ar    1  UNL1        0.1721
     23 C         139.4494  138.5657  160.0249 C.3     1  UNL1        0.2526
     24 O         138.2587  139.0059  160.8239 O.3     1  UNL1       -0.4684
     25 O         137.2555  141.4047  162.3203 O.3     1  UNL1       -0.4684
     26 C         138.1510  142.5186  161.8651 C.3     1  UNL1        0.2526
@<TRIPOS>BOND
     1    23    24    1
     2    24    17    1
     3    17    18   ar
     4    18    19   ar
     5    19    20   ar
     6    20    16    1
     7    16    15    1
     8    15     1    1
     9     2     1    1
    10     2     3    1
    11     3     4    1
    12     4     5    1
    13     5     6    1
    14     6     7    1
    15     7     8    1
    16     8     9    1
    17     9    10    1
    18    10    11    1
    19    11    12    1
    20    11    13    1
    21    20    21   ar
    22    21    22   ar
    23    22    25    1
    24    25    26    1
    25    22    17   ar
    26     7     2    1
    27    13     8    1
    28    12    14    1
@<TRIPOS>MOLECULE
*****
 26 28 0 0 0
SMALL
GASTEIGER

@<TRIPOS>ATOM
      1 O         140.4170  139.7932  162.6722 O.3     1  UNL1       -0.3545
      2 C         139.6551  139.2594  163.8489 C.3     1  UNL1        0.1297
      3 C         139.7292  137.8009  164.1913 C.3     1  UNL1        0.0309
      4 C         138.9674  137.2670  165.3681 C.3     1  UNL1        0.0026
      5 C         138.1315  138.1918  166.2024 C.3     1  UNL1        0.0015
      6 C         138.0574  139.6503  165.8600 C.3     1  UNL1        0.0184
      7 C         138.8192  140.1841  164.6833 C.3     1  UNL1        0.0848
      8 N         138.7451  141.6426  164.3408 N.3     1  UNL1       -0.2697
      9 C         139.5899  142.7314  164.9331 C.3     1  UNL1        0.0747
     10 C         139.1801  144.0301  164.3043 C.3     1  UNL1        0.0480
     11 C         138.0819  143.7440  163.3233 C.3     1  UNL1        0.1278
     12 O         137.3765  144.7558  162.4697 O.3     1  UNL1       -0.3830
     13 C         137.8131  142.2685  163.3459 C.3     1  UNL1        0.1017
     14 H         137.7395  145.6376  162.6468 H       1  UNL1        0.2104
     15 C         141.7564  140.4370  162.8754 C.3     1  UNL1        0.1468
     16 C         142.6748  139.9346  163.9497 C.3     1  UNL1        0.0585
     17 C         142.7183  141.9257  167.9851 C.ar    1  UNL1        0.1724
     18 C         143.3501  142.6053  166.8066 C.ar    1  UNL1        0.0397
     19 C         143.3356  141.9416  165.4615 C.ar    1  UNL1       -0.0009
     20 C         142.6893  140.5983  165.2949 C.ar    1  UNL1       -0.0165
     21 C         142.0575  139.9187  166.4733 C.ar    1  UNL1        0.0359
     22 C         142.0720  140.5824  167.8185 C.ar    1  UNL1        0.1721
     23 C         141.4800  143.2096  169.8740 C.3     1  UNL1        0.2526
     24 O         142.7328  142.5893  169.3302 O.3     1  UNL1       -0.4684
     25 O         141.4401  139.9027  168.9970 O.3     1  UNL1       -0.4684
     26 C         142.2908  139.1356  169.9654 C.3     1  UNL1        0.2526
@<TRIPOS>BOND
     1    23    24    1
     2    24    17    1
     3    17    18   ar
     4    18    19   ar
     5    19    20   ar
     6    20    16    1
     7    16    15    1
     8    15     1    1
     9     2     1    1
    10     2     3    1
    11     3     4    1
    12     4     5    1
    13     5     6    1
    14     6     7    1
    15     7     8    1
    16     8     9    1
    17     9    10    1
    18    10    11    1
    19    11    12    1
    20    11    13    1
    21    20    21   ar
    22    21    22   ar
    23    22    25    1
    24    25    26    1
    25    22    17   ar
    26     7     2    1
    27    13     8    1
    28    12    14    1
@<TRIPOS>MOLECULE
*****
 26 28 0 0 0
SMALL
GASTEIGER

@<TRIPOS>ATOM
      1 O         141.3736  140.8148  167.1379 O.3     1  UNL1       -0.3545
      2 C         140.4960  139.7818  166.4953 C.3     1  UNL1        0.1297
      3 C         139.1041  139.5568  167.0071 C.3     1  UNL1        0.0309
      4 C         138.2266  138.5237  166.3645 C.3     1  UNL1        0.0026
      5 C         138.7410  137.7157  165.2101 C.3     1  UNL1        0.0015
      6 C         140.1330  137.9408  164.6984 C.3     1  UNL1        0.0184
      7 C         141.0104  138.9738  165.3410 C.3     1  UNL1        0.0848
      8 N         142.4024  139.1988  164.8292 N.3     1  UNL1       -0.2697
      9 C         143.6676  138.7149  165.4734 C.3     1  UNL1        0.0747
     10 C         144.8207  139.1643  164.6257 C.3     1  UNL1        0.0480
     11 C         144.2681  139.9260  163.4576 C.3     1  UNL1        0.1278
     12 O         145.0693  140.5557  162.3570 O.3     1  UNL1       -0.3830
     13 C         142.7735  139.9473  163.5834 C.3     1  UNL1        0.1017
     14 H         146.0134  140.3964  162.5125 H       1  UNL1        0.2104
     15 C         141.3404  142.2338  166.6527 C.3     1  UNL1        0.1468
     16 C         140.0274  142.8912  166.3463 C.3     1  UNL1        0.0585
     17 C         138.6120  143.2131  162.0869 C.ar    1  UNL1        0.1724
     18 C         139.5639  144.2319  162.6399 C.ar    1  UNL1        0.0397
     19 C         140.0357  144.1246  164.0597 C.ar    1  UNL1       -0.0009
     20 C         139.5556  142.9985  164.9265 C.ar    1  UNL1       -0.0165
     21 C         138.6038  141.9796  164.3735 C.ar    1  UNL1        0.0359
     22 C         138.1320  142.0869  162.9536 C.ar    1  UNL1        0.1721
     23 C         138.8406  142.5545  159.5841 C.3     1  UNL1        0.2526
     24 O         138.1402  143.3204  160.6670 O.3     1  UNL1       -0.4684
     25 O         137.1800  141.0680  162.4006 O.3     1  UNL1       -0.4684
     26 C         137.7015  139.7684  161.8631 C.3     1  UNL1        0.2526
@<TRIPOS>BOND
     1    23    24    1
     2    24    17    1
     3    17    18   ar
     4    18    19   ar
     5    19    20   ar
     6    20    16    1
     7    16    15    1
     8    15     1    1
     9     2     1    1
    10     2     3    1
    11     3     4    1
    12     4     5    1
    13     5     6    1
    14     6     7    1
    15     7     8    1
    16     8     9    1
    17     9    10    1
    18    10    11    1
    19    11    12    1
    20    11    13    1
    21    20    21   ar
    22    21    22   ar
    23    22    25    1
    24    25    26    1
    25    22    17   ar
    26     7     2    1
    27    13     8    1
    28    12    14    1
@<TRIPOS>MOLECULE
*****
 26 28 0 0 0
SMALL
GASTEIGER

@<TRIPOS>ATOM
      1 O         139.2055  139.3942  167.0081 O.3     1  UNL1       -0.3545
      2 C         139.3972  140.7640  166.4275 C.3     1  UNL1        0.1297
      3 C         138.7862  141.1089  165.1018 C.3     1  UNL1        0.0309
      4 C         138.9778  142.4787  164.5212 C.3     1  UNL1        0.0026
      5 C         139.7805  143.5035  165.2664 C.3     1  UNL1        0.0015
      6 C         140.3916  143.1586  166.5922 C.3     1  UNL1        0.0184
      7 C         140.1999  141.7888  167.1727 C.3     1  UNL1        0.0848
      8 N         140.8109  141.4439  168.4986 N.3     1  UNL1       -0.2697
      9 C         142.2779  141.3335  168.7913 C.3     1  UNL1        0.0747
     10 C         142.4359  140.9702  170.2380 C.3     1  UNL1        0.0480
     11 C         141.0664  140.8560  170.8395 C.3     1  UNL1        0.1278
     12 O         140.7558  140.5099  172.2655 O.3     1  UNL1       -0.3830
     13 C         140.0622  141.1488  169.7644 C.3     1  UNL1        0.1017
     14 H         141.5833  140.3680  172.7514 H       1  UNL1        0.2104
     15 C         138.0984  138.5152  166.5065 C.3     1  UNL1        0.1468
     16 C         138.4137  137.3350  165.6360 C.3     1  UNL1        0.0585
     17 C         141.1533  137.8162  162.0986 C.ar    1  UNL1        0.1724
     18 C         141.7264  137.5775  163.4641 C.ar    1  UNL1        0.0397
     19 C         140.8132  137.4171  164.6432 C.ar    1  UNL1       -0.0009
     20 C         139.3269  137.4954  164.4569 C.ar    1  UNL1       -0.0165
     21 C         138.7538  137.7342  163.0914 C.ar    1  UNL1        0.0359
     22 C         139.6670  137.8946  161.9123 C.ar    1  UNL1        0.1721
     23 C         143.1573  139.0057  160.9502 C.3     1  UNL1        0.2526
     24 O         142.0665  137.9766  160.9195 O.3     1  UNL1       -0.4684
     25 O         139.0938  138.1333  160.5468 O.3     1  UNL1       -0.4684
     26 C         138.9553  139.5331  160.0258 C.3     1  UNL1        0.2526
@<TRIPOS>BOND
     1    23    24    1
     2    24    17    1
     3    17    18   ar
     4    18    19   ar
     5    19    20   ar
     6    20    16    1
     7    16    15    1
     8    15     1    1
     9     2     1    1
    10     2     3    1
    11     3     4    1
    12     4     5    1
    13     5     6    1
    14     6     7    1
    15     7     8    1
    16     8     9    1
    17     9    10    1
    18    10    11    1
    19    11    12    1
    20    11    13    1
    21    20    21   ar
    22    21    22   ar
    23    22    25    1
    24    25    26    1
    25    22    17   ar
    26     7     2    1
    27    13     8    1
    28    12    14    1
