@<TRIPOS>MOLECULE
*****
 29 32 0 0 0
SMALL
GASTEIGER

@<TRIPOS>ATOM
      1 N         137.6268  141.9403  163.4094 N.pl3   1  UNL1       -0.2150
      2 H         136.6528  141.8069  163.3560 H       1  UNL1        0.1737
      3 C         138.3800  141.4887  164.6254 C.ar    1  UNL1        0.0648
      4 C         138.1474  140.1167  165.1852 C.ar    1  UNL1        0.0155
      5 C         138.9008  139.6652  166.4012 C.ar    1  UNL1       -0.0029
      6 C         139.8867  140.5857  167.0574 C.ar    1  UNL1       -0.0214
      7 C         140.1193  141.9577  166.4976 C.ar    1  UNL1       -0.0029
      8 C         139.3660  142.4093  165.2816 C.ar    1  UNL1        0.0155
      9 C         140.6400  140.1342  168.2735 C.3     1  UNL1        0.0347
     10 C         141.9115  139.7956  167.5533 C.3     1  UNL1        0.0726
     11 N         142.8978  139.2930  168.5657 N.3     1  UNL1       -0.2972
     12 C         142.2358  139.3210  169.9113 C.3     1  UNL1        0.0689
     13 C         140.8404  139.8409  169.7307 C.3     1  UNL1        0.0211
     14 C         139.5260  140.3784  169.2477 C.3     1  UNL1        0.0072
     15 H         143.7225  139.8932  168.5731 H       1  UNL1        0.1233
     16 S         138.3574  142.5951  162.2748 S.O2    1  UNL1        0.0736
     17 O         139.0430  141.2969  161.9671 O.2     1  UNL1       -0.1499
     18 O         137.6718  143.8933  162.5825 O.2     1  UNL1       -0.1499
     19 C         140.5492  144.5595  158.8709 C.ar    1  UNL1       -0.0227
     20 C         139.7556  143.3097  158.6300 C.ar    1  UNL1       -0.0029
     21 C         139.0250  142.6549  159.7647 C.ar    1  UNL1        0.0199
     22 C         139.0880  143.2499  161.1401 C.ar    1  UNL1        0.1251
     23 C         139.8817  144.4997  161.3810 C.ar    1  UNL1        0.0199
     24 C         140.6123  145.1545  160.2463 C.ar    1  UNL1       -0.0029
     25 C         141.2799  145.2143  157.7362 C.3     1  UNL1        0.0189
     26 C         142.4399  144.2874  157.9482 C.3     1  UNL1        0.0044
     27 C         140.1198  146.1413  157.5242 C.3     1  UNL1        0.0044
     28 C         142.4219  145.0596  155.4078 C.3     1  UNL1        0.0003
     29 C         142.0105  145.8692  156.6016 C.3     1  UNL1        0.0040
@<TRIPOS>BOND
     1    28    29    1
     2    29    25    1
     3    25    26    1
     4    25    27    1
     5    25    19    1
     6    19    20   ar
     7    20    21   ar
     8    21    22   ar
     9    22    16    1
    10    16    17    2
    11    16    18    2
    12    16     1    1
    13     1     3    1
    14     3     4   ar
    15     4     5   ar
    16     5     6   ar
    17     9     6    1
    18     9    10    1
    19    10    11    1
    20    11    12    1
    21    13    12    1
    22    13    14    1
    23     6     7   ar
    24     7     8   ar
    25    22    23   ar
    26    23    24   ar
    27    24    19   ar
    28     8     3   ar
    29    13     9    1
    30    14     9    1
    31     1     2    1
    32    11    15    1
@<TRIPOS>MOLECULE
*****
 29 32 0 0 0
SMALL
GASTEIGER

@<TRIPOS>ATOM
      1 N         138.9897  137.7074  163.9620 N.pl3   1  UNL1       -0.2150
      2 H         138.3084  137.0009  164.0394 H       1  UNL1        0.1737
      3 C         139.2766  138.6036  165.1300 C.ar    1  UNL1        0.0648
      4 C         140.4844  139.4930  165.1140 C.ar    1  UNL1        0.0155
      5 C         140.7714  140.3893  166.2822 C.ar    1  UNL1       -0.0029
      6 C         139.8505  140.3962  167.4662 C.ar    1  UNL1       -0.0214
      7 C         138.6427  139.5068  167.4822 C.ar    1  UNL1       -0.0029
      8 C         138.3558  138.6106  166.3141 C.ar    1  UNL1        0.0155
      9 C         140.1375  141.2924  168.6343 C.3     1  UNL1        0.0347
     10 C         139.8049  140.2823  169.6922 C.3     1  UNL1        0.0726
     11 N         140.0098  140.9283  171.0305 N.3     1  UNL1       -0.2972
     12 C         140.4690  142.3375  170.7996 C.3     1  UNL1        0.0689
     13 C         140.5478  142.5625  169.3187 C.3     1  UNL1        0.0211
     14 C         140.5300  142.4897  167.8206 C.3     1  UNL1        0.0072
     15 H         140.7169  140.4159  171.5576 H       1  UNL1        0.1233
     16 S         139.7406  137.8876  162.6761 S.O2    1  UNL1        0.0736
     17 O         140.7534  136.8767  163.1258 O.2     1  UNL1       -0.1499
     18 O         138.7278  138.8986  162.2263 O.2     1  UNL1       -0.1499
     19 C         141.9934  138.4283  158.8183 C.ar    1  UNL1       -0.0227
     20 C         140.5148  138.6763  158.8644 C.ar    1  UNL1       -0.0029
     21 C         139.7639  138.4961  160.1504 C.ar    1  UNL1        0.0199
     22 C         140.4915  138.0679  161.3901 C.ar    1  UNL1        0.1251
     23 C         141.9701  137.8199  161.3440 C.ar    1  UNL1        0.0199
     24 C         142.7211  138.0001  160.0580 C.ar    1  UNL1       -0.0029
     25 C         142.7443  138.6085  157.5323 C.3     1  UNL1        0.0189
     26 C         142.8317  140.0836  157.7901 C.3     1  UNL1        0.0044
     27 C         142.6569  137.1334  157.2745 C.3     1  UNL1        0.0044
     28 C         144.0088  137.5911  155.5036 C.3     1  UNL1        0.0003
     29 C         143.4953  138.7887  156.2464 C.3     1  UNL1        0.0040
@<TRIPOS>BOND
     1    28    29    1
     2    29    25    1
     3    25    26    1
     4    25    27    1
     5    25    19    1
     6    19    20   ar
     7    20    21   ar
     8    21    22   ar
     9    22    16    1
    10    16    17    2
    11    16    18    2
    12    16     1    1
    13     1     3    1
    14     3     4   ar
    15     4     5   ar
    16     5     6   ar
    17     9     6    1
    18     9    10    1
    19    10    11    1
    20    11    12    1
    21    13    12    1
    22    13    14    1
    23     6     7   ar
    24     7     8   ar
    25    22    23   ar
    26    23    24   ar
    27    24    19   ar
    28     8     3   ar
    29    13     9    1
    30    14     9    1
    31     1     2    1
    32    11    15    1
@<TRIPOS>MOLECULE
*****
 29 32 0 0 0
SMALL
GASTEIGER

@<TRIPOS>ATOM
      1 N         144.5674  138.8161  162.5979 N.pl3   1  UNL1       -0.2150
      2 H         145.3966  138.2860  162.6240 H       1  UNL1        0.1737
      3 C         143.7737  138.9048  161.3282 C.ar    1  UNL1        0.0648
      4 C         143.4313  137.6573  160.5690 C.ar    1  UNL1        0.0155
      5 C         142.6376  137.7461  159.2992 C.ar    1  UNL1       -0.0029
      6 C         142.1863  139.0824  158.7887 C.ar    1  UNL1       -0.0214
      7 C         142.5287  140.3299  159.5479 C.ar    1  UNL1       -0.0029
      8 C         143.3224  140.2412  160.8176 C.ar    1  UNL1        0.0155
      9 C         141.3926  139.1712  157.5190 C.3     1  UNL1        0.0347
     10 C         140.3104  138.2235  157.9441 C.3     1  UNL1        0.0726
     11 N         139.3251  138.1103  156.8187 N.3     1  UNL1       -0.2972
     12 C         139.7984  138.9880  155.6981 C.3     1  UNL1        0.0689
     13 C         141.0762  139.6436  156.1310 C.3     1  UNL1        0.0211
     14 C         142.3089  140.1373  156.8285 C.3     1  UNL1        0.0072
     15 H         138.4042  138.4164  157.1327 H       1  UNL1        0.1233
     16 S         144.0977  139.5350  163.8278 S.O2    1  UNL1        0.0736
     17 O         142.9394  138.5883  163.9388 O.2     1  UNL1       -0.1499
     18 O         145.2559  140.4816  163.7168 O.2     1  UNL1       -0.1499
     19 C         142.6886  141.6916  167.5174 C.ar    1  UNL1       -0.0227
     20 C         142.5012  140.2082  167.3982 C.ar    1  UNL1       -0.0029
     21 C         142.9709  139.4893  166.1683 C.ar    1  UNL1        0.0199
     22 C         143.6280  140.2538  165.0576 C.ar    1  UNL1        0.1251
     23 C         143.8154  141.7373  165.1768 C.ar    1  UNL1        0.0199
     24 C         143.3457  142.4562  166.4067 C.ar    1  UNL1       -0.0029
     25 C         142.2189  142.4105  168.7473 C.3     1  UNL1        0.0189
     26 C         143.5874  142.2783  169.3472 C.3     1  UNL1        0.0044
     27 C         140.8505  142.5427  168.1474 C.3     1  UNL1        0.0044
     28 C         140.4856  143.9365  169.9375 C.3     1  UNL1        0.0003
     29 C         141.7492  143.1294  169.9771 C.3     1  UNL1        0.0040
@<TRIPOS>BOND
     1    28    29    1
     2    29    25    1
     3    25    26    1
     4    25    27    1
     5    25    19    1
     6    19    20   ar
     7    20    21   ar
     8    21    22   ar
     9    22    16    1
    10    16    17    2
    11    16    18    2
    12    16     1    1
    13     1     3    1
    14     3     4   ar
    15     4     5   ar
    16     5     6   ar
    17     9     6    1
    18     9    10    1
    19    10    11    1
    20    11    12    1
    21    13    12    1
    22    13    14    1
    23     6     7   ar
    24     7     8   ar
    25    22    23   ar
    26    23    24   ar
    27    24    19   ar
    28     8     3   ar
    29    13     9    1
    30    14     9    1
    31     1     2    1
    32    11    15    1
@<TRIPOS>MOLECULE
*****
 29 32 0 0 0
SMALL
GASTEIGER

@<TRIPOS>ATOM
      1 N         137.4955  140.9686  162.1738 N.pl3   1  UNL1       -0.2150
      2 H         136.6469  140.5345  161.9276 H       1  UNL1        0.1737
      3 C         138.2329  141.7995  161.1660 C.ar    1  UNL1        0.0648
      4 C         138.2252  141.4051  159.7188 C.ar    1  UNL1        0.0155
      5 C         138.9626  142.2361  158.7110 C.ar    1  UNL1       -0.0029
      6 C         139.7078  143.4615  159.1504 C.ar    1  UNL1       -0.0214
      7 C         139.7156  143.8559  160.5976 C.ar    1  UNL1       -0.0029
      8 C         138.9782  143.0250  161.6054 C.ar    1  UNL1        0.0155
      9 C         140.4452  144.2925  158.1425 C.3     1  UNL1        0.0347
     10 C         141.3754  144.9409  159.1246 C.3     1  UNL1        0.0726
     11 N         142.2751  145.8712  158.3661 N.3     1  UNL1       -0.2972
     12 C         141.9009  145.7977  156.9154 C.3     1  UNL1        0.0689
     13 C         140.7700  144.8220  156.7773 C.3     1  UNL1        0.0211
     14 C         139.6692  143.8178  156.9499 C.3     1  UNL1        0.0072
     15 H         143.2474  145.5880  158.4875 H       1  UNL1        0.1233
     16 S         138.0512  140.7989  163.5568 S.O2    1  UNL1        0.0736
     17 O         138.8807  139.6430  163.0817 O.2     1  UNL1       -0.1499
     18 O         137.2216  141.9549  164.0318 O.2     1  UNL1       -0.1499
     19 C         139.7180  140.2900  167.7056 C.ar    1  UNL1       -0.0227
     20 C         140.1488  141.4528  166.8616 C.ar    1  UNL1       -0.0029
     21 C         139.5932  141.6225  165.4787 C.ar    1  UNL1        0.0199
     22 C         138.6068  140.6293  164.9397 C.ar    1  UNL1        0.1251
     23 C         138.1760  139.4665  165.7836 C.ar    1  UNL1        0.0199
     24 C         138.7316  139.2969  167.1666 C.ar    1  UNL1       -0.0029
     25 C         140.2736  140.1204  169.0885 C.3     1  UNL1        0.0189
     26 C         138.9024  140.3180  169.6636 C.3     1  UNL1        0.0044
     27 C         141.6448  139.9228  168.5134 C.3     1  UNL1        0.0044
     28 C         141.5568  141.0842  171.1316 C.3     1  UNL1        0.0003
     29 C         140.8292  139.9508  170.4715 C.3     1  UNL1        0.0040
@<TRIPOS>BOND
     1    28    29    1
     2    29    25    1
     3    25    26    1
     4    25    27    1
     5    25    19    1
     6    19    20   ar
     7    20    21   ar
     8    21    22   ar
     9    22    16    1
    10    16    17    2
    11    16    18    2
    12    16     1    1
    13     1     3    1
    14     3     4   ar
    15     4     5   ar
    16     5     6   ar
    17     9     6    1
    18     9    10    1
    19    10    11    1
    20    11    12    1
    21    13    12    1
    22    13    14    1
    23     6     7   ar
    24     7     8   ar
    25    22    23   ar
    26    23    24   ar
    27    24    19   ar
    28     8     3   ar
    29    13     9    1
    30    14     9    1
    31     1     2    1
    32    11    15    1
@<TRIPOS>MOLECULE
*****
 29 32 0 0 0
SMALL
GASTEIGER

@<TRIPOS>ATOM
      1 N         137.6485  140.3845  164.4027 N.pl3   1  UNL1       -0.2150
      2 H         136.8447  139.8950  164.6917 H       1  UNL1        0.1737
      3 C         138.6607  140.8293  165.4164 C.ar    1  UNL1        0.0648
      4 C         139.0624  139.9077  166.5296 C.ar    1  UNL1        0.0155
      5 C         140.0746  140.3526  167.5433 C.ar    1  UNL1       -0.0029
      6 C         140.6850  141.7191  167.4439 C.ar    1  UNL1       -0.0214
      7 C         140.2833  142.6408  166.3307 C.ar    1  UNL1       -0.0029
      8 C         139.2712  142.1959  165.3170 C.ar    1  UNL1        0.0155
      9 C         141.6972  142.1640  168.4576 C.3     1  UNL1        0.0347
     10 C         140.7108  142.4393  169.5536 C.3     1  UNL1        0.0726
     11 N         141.4725  142.9224  170.7521 N.3     1  UNL1       -0.2972
     12 C         142.9296  142.9455  170.3968 C.3     1  UNL1        0.0689
     13 C         143.0685  142.4768  168.9787 C.3     1  UNL1        0.0211
     14 C         142.8951  141.9816  167.5735 C.3     1  UNL1        0.0072
     15 H         141.3179  142.2909  171.5381 H       1  UNL1        0.1233
     16 S         137.8610  140.6855  162.9487 S.O2    1  UNL1        0.0736
     17 O         138.8547  139.5652  162.8620 O.2     1  UNL1       -0.1499
     18 O         136.8674  141.8058  163.0354 O.2     1  UNL1       -0.1499
     19 C         138.4985  141.5885  158.5865 C.ar    1  UNL1       -0.0227
     20 C         138.1249  140.2015  159.0185 C.ar    1  UNL1       -0.0029
     21 C         137.9124  139.9005  160.4726 C.ar    1  UNL1        0.0199
     22 C         138.0735  140.9865  161.4946 C.ar    1  UNL1        0.1251
     23 C         138.4471  142.3735  161.0626 C.ar    1  UNL1        0.0199
     24 C         138.6596  142.6745  159.6086 C.ar    1  UNL1       -0.0029
     25 C         138.7110  141.8895  157.1325 C.3     1  UNL1        0.0189
     26 C         140.1898  141.9790  157.3671 C.3     1  UNL1        0.0044
     27 C         137.2321  141.8000  156.8979 C.3     1  UNL1        0.0044
     28 C         139.9032  141.3822  154.8806 C.3     1  UNL1        0.0003
     29 C         138.9235  142.1905  155.6784 C.3     1  UNL1        0.0040
@<TRIPOS>BOND
     1    28    29    1
     2    29    25    1
     3    25    26    1
     4    25    27    1
     5    25    19    1
     6    19    20   ar
     7    20    21   ar
     8    21    22   ar
     9    22    16    1
    10    16    17    2
    11    16    18    2
    12    16     1    1
    13     1     3    1
    14     3     4   ar
    15     4     5   ar
    16     5     6   ar
    17     9     6    1
    18     9    10    1
    19    10    11    1
    20    11    12    1
    21    13    12    1
    22    13    14    1
    23     6     7   ar
    24     7     8   ar
    25    22    23   ar
    26    23    24   ar
    27    24    19   ar
    28     8     3   ar
    29    13     9    1
    30    14     9    1
    31     1     2    1
    32    11    15    1
@<TRIPOS>MOLECULE
*****
 29 32 0 0 0
SMALL
GASTEIGER

@<TRIPOS>ATOM
      1 N         144.8140  140.3217  162.3079 N.pl3   1  UNL1       -0.2150
      2 H         145.7088  140.6966  162.1403 H       1  UNL1        0.1737
      3 C         144.0373  139.7035  161.1834 C.ar    1  UNL1        0.0648
      4 C         143.7983  140.4787  159.9217 C.ar    1  UNL1        0.0155
      5 C         143.0215  139.8604  158.7973 C.ar    1  UNL1       -0.0029
      6 C         142.4838  138.4669  158.9345 C.ar    1  UNL1       -0.0214
      7 C         142.7228  137.6916  160.1962 C.ar    1  UNL1       -0.0029
      8 C         143.4995  138.3099  161.3206 C.ar    1  UNL1        0.0155
      9 C         141.7070  137.8485  157.8100 C.3     1  UNL1        0.0347
     10 C         140.4002  138.5057  158.1424 C.3     1  UNL1        0.0726
     11 N         139.3842  138.0517  157.1365 N.3     1  UNL1       -0.2972
     12 C         140.0631  137.1141  156.1826 C.3     1  UNL1        0.0689
     13 C         141.4987  136.9886  156.5989 C.3     1  UNL1        0.0211
     14 C         142.8514  137.0622  157.2427 C.3     1  UNL1        0.0072
     15 H         139.0167  138.8562  156.6285 H       1  UNL1        0.1233
     16 S         144.2275  140.3688  163.6876 S.O2    1  UNL1        0.0736
     17 O         143.1683  141.3150  163.2051 O.2     1  UNL1       -0.1499
     18 O         145.2867  139.4226  164.1702 O.2     1  UNL1       -0.1499
     19 C         142.4679  140.5101  167.8269 C.ar    1  UNL1       -0.0227
     20 C         142.7735  141.7849  167.0980 C.ar    1  UNL1       -0.0029
     21 C         143.3600  141.7378  165.7182 C.ar    1  UNL1        0.0199
     22 C         143.6409  140.4159  165.0674 C.ar    1  UNL1        0.1251
     23 C         143.3353  139.1411  165.7963 C.ar    1  UNL1        0.0199
     24 C         142.7488  139.1882  167.1761 C.ar    1  UNL1       -0.0029
     25 C         141.8813  140.5572  169.2067 C.3     1  UNL1        0.0189
     26 C         140.6125  139.9478  168.6881 C.3     1  UNL1        0.0044
     27 C         143.1501  141.1665  169.7253 C.3     1  UNL1        0.0044
     28 C         140.8678  141.9159  171.1755 C.3     1  UNL1        0.0003
     29 C         141.2948  140.6042  170.5865 C.3     1  UNL1        0.0040
@<TRIPOS>BOND
     1    28    29    1
     2    29    25    1
     3    25    26    1
     4    25    27    1
     5    25    19    1
     6    19    20   ar
     7    20    21   ar
     8    21    22   ar
     9    22    16    1
    10    16    17    2
    11    16    18    2
    12    16     1    1
    13     1     3    1
    14     3     4   ar
    15     4     5   ar
    16     5     6   ar
    17     9     6    1
    18     9    10    1
    19    10    11    1
    20    11    12    1
    21    13    12    1
    22    13    14    1
    23     6     7   ar
    24     7     8   ar
    25    22    23   ar
    26    23    24   ar
    27    24    19   ar
    28     8     3   ar
    29    13     9    1
    30    14     9    1
    31     1     2    1
    32    11    15    1
@<TRIPOS>MOLECULE
*****
 29 32 0 0 0
SMALL
GASTEIGER

@<TRIPOS>ATOM
      1 N         137.7649  140.1432  163.9520 N.pl3   1  UNL1       -0.2150
      2 H         137.0402  139.4776  163.9193 H       1  UNL1        0.1737
      3 C         138.4877  140.4022  165.2406 C.ar    1  UNL1        0.0648
      4 C         138.3895  139.4164  166.3669 C.ar    1  UNL1        0.0155
      5 C         139.1124  139.6755  167.6555 C.ar    1  UNL1       -0.0029
      6 C         139.9334  140.9203  167.8177 C.ar    1  UNL1       -0.0214
      7 C         140.0315  141.9061  166.6914 C.ar    1  UNL1       -0.0029
      8 C         139.3088  141.6471  165.4029 C.ar    1  UNL1        0.0155
      9 C         140.6562  141.1794  169.1063 C.3     1  UNL1        0.0347
     10 C         139.8786  140.1908  169.9237 C.3     1  UNL1        0.0726
     11 N         140.4074  140.2319  171.3269 N.3     1  UNL1       -0.2972
     12 C         141.5116  141.2459  171.3766 C.3     1  UNL1        0.0689
     13 C         141.6654  141.8315  170.0043 C.3     1  UNL1        0.0211
     14 C         141.5848  142.2221  168.5583 C.3     1  UNL1        0.0072
     15 H         140.7681  139.3142  171.5879 H       1  UNL1        0.1233
     16 S         138.1463  140.8982  162.7133 S.O2    1  UNL1        0.0736
     17 O         136.9507  141.7872  162.8870 O.2     1  UNL1       -0.1499
     18 O         139.3419  140.0092  162.5395 O.2     1  UNL1       -0.1499
     19 C         139.2903  143.1632  158.9970 C.ar    1  UNL1       -0.0227
     20 C         139.6357  143.7155  160.3481 C.ar    1  UNL1       -0.0029
     21 C         139.2544  142.9605  161.5869 C.ar    1  UNL1        0.0199
     22 C         138.5276  141.6532  161.4745 C.ar    1  UNL1        0.1251
     23 C         138.1822  141.1009  160.1234 C.ar    1  UNL1        0.0199
     24 C         138.5635  141.8559  158.8846 C.ar    1  UNL1       -0.0029
     25 C         139.6716  143.9183  157.7582 C.3     1  UNL1        0.0189
     26 C         138.9117  142.9311  156.9227 C.3     1  UNL1        0.0044
     27 C         140.4315  144.9054  158.5938 C.3     1  UNL1        0.0044
     28 C         140.3123  146.1489  156.5905 C.3     1  UNL1        0.0003
     29 C         140.0530  144.6733  156.5195 C.3     1  UNL1        0.0040
@<TRIPOS>BOND
     1    28    29    1
     2    29    25    1
     3    25    26    1
     4    25    27    1
     5    25    19    1
     6    19    20   ar
     7    20    21   ar
     8    21    22   ar
     9    22    16    1
    10    16    17    2
    11    16    18    2
    12    16     1    1
    13     1     3    1
    14     3     4   ar
    15     4     5   ar
    16     5     6   ar
    17     9     6    1
    18     9    10    1
    19    10    11    1
    20    11    12    1
    21    13    12    1
    22    13    14    1
    23     6     7   ar
    24     7     8   ar
    25    22    23   ar
    26    23    24   ar
    27    24    19   ar
    28     8     3   ar
    29    13     9    1
    30    14     9    1
    31     1     2    1
    32    11    15    1
@<TRIPOS>MOLECULE
*****
 29 32 0 0 0
SMALL
GASTEIGER

@<TRIPOS>ATOM
      1 N         138.9133  137.6951  164.0130 N.pl3   1  UNL1       -0.2150
      2 H         138.6970  136.7474  164.1693 H       1  UNL1        0.1737
      3 C         139.2215  138.5951  165.1726 C.ar    1  UNL1        0.0648
      4 C         138.3150  138.6160  166.3675 C.ar    1  UNL1        0.0155
      5 C         138.6233  139.5161  167.5272 C.ar    1  UNL1       -0.0029
      6 C         139.8380  140.3954  167.4920 C.ar    1  UNL1       -0.0214
      7 C         140.7445  140.3746  166.2971 C.ar    1  UNL1       -0.0029
      8 C         140.4363  139.4745  165.1374 C.ar    1  UNL1        0.0155
      9 C         140.1463  141.2955  168.6516 C.3     1  UNL1        0.0347
     10 C         139.8026  140.2992  169.7190 C.3     1  UNL1        0.0726
     11 N         140.0256  140.9517  171.0512 N.3     1  UNL1       -0.2972
     12 C         140.5070  142.3512  170.8070 C.3     1  UNL1        0.0689
     13 C         140.5815  142.5637  169.3240 C.3     1  UNL1        0.0211
     14 C         140.5543  142.4799  167.8267 C.3     1  UNL1        0.0072
     15 H         140.7269  140.4315  171.5784 H       1  UNL1        0.1233
     16 S         138.9348  138.2388  162.6152 S.O2    1  UNL1        0.0736
     17 O         140.0804  137.3305  162.2795 O.2     1  UNL1       -0.1499
     18 O         137.7891  139.1470  162.9509 O.2     1  UNL1       -0.1499
     19 C         138.9990  139.8699  158.4217 C.ar    1  UNL1       -0.0227
     20 C         137.8821  140.2383  159.3527 C.ar    1  UNL1       -0.0029
     21 C         137.8607  139.6946  160.7506 C.ar    1  UNL1        0.0199
     22 C         138.9562  138.7825  161.2173 C.ar    1  UNL1        0.1251
     23 C         140.0730  138.4140  160.2863 C.ar    1  UNL1        0.0199
     24 C         140.0944  138.9577  158.8885 C.ar    1  UNL1       -0.0029
     25 C         139.0204  140.4136  157.0239 C.3     1  UNL1        0.0189
     26 C         138.0914  141.5159  157.4384 C.3     1  UNL1        0.0044
     27 C         139.9494  139.3112  156.6093 C.3     1  UNL1        0.0044
     28 C         137.9423  140.6064  154.6679 C.3     1  UNL1        0.0003
     29 C         139.0418  140.9573  155.6260 C.3     1  UNL1        0.0040
@<TRIPOS>BOND
     1    28    29    1
     2    29    25    1
     3    25    26    1
     4    25    27    1
     5    25    19    1
     6    19    20   ar
     7    20    21   ar
     8    21    22   ar
     9    22    16    1
    10    16    17    2
    11    16    18    2
    12    16     1    1
    13     1     3    1
    14     3     4   ar
    15     4     5   ar
    16     5     6   ar
    17     9     6    1
    18     9    10    1
    19    10    11    1
    20    11    12    1
    21    13    12    1
    22    13    14    1
    23     6     7   ar
    24     7     8   ar
    25    22    23   ar
    26    23    24   ar
    27    24    19   ar
    28     8     3   ar
    29    13     9    1
    30    14     9    1
    31     1     2    1
    32    11    15    1
@<TRIPOS>MOLECULE
*****
 29 32 0 0 0
SMALL
GASTEIGER

@<TRIPOS>ATOM
      1 N         143.4934  143.3413  163.5687 N.pl3   1  UNL1       -0.2150
      2 H         144.4755  143.3979  163.6090 H       1  UNL1        0.1737
      3 C         142.7140  142.9517  164.7896 C.ar    1  UNL1        0.0648
      4 C         143.4339  142.5286  166.0357 C.ar    1  UNL1        0.0155
      5 C         142.6544  142.1390  167.2566 C.ar    1  UNL1       -0.0029
      6 C         141.1550  142.1726  167.2315 C.ar    1  UNL1       -0.0214
      7 C         140.4351  142.5957  165.9854 C.ar    1  UNL1       -0.0029
      8 C         141.2145  142.9853  164.7645 C.ar    1  UNL1        0.0155
      9 C         140.3755  141.7830  168.4524 C.3     1  UNL1        0.0347
     10 C         139.9059  140.4604  167.9230 C.3     1  UNL1        0.0726
     11 N         139.0622  139.8113  168.9800 N.3     1  UNL1       -0.2972
     12 C         139.0105  140.7328  170.1624 C.3     1  UNL1        0.0689
     13 C         139.8222  141.9513  169.8364 C.3     1  UNL1        0.0211
     14 C         140.6822  143.0241  169.2369 C.3     1  UNL1        0.0072
     15 H         139.4755  138.9199  169.2537 H       1  UNL1        0.1233
     16 S         142.7767  143.6447  162.2865 S.O2    1  UNL1        0.0736
     17 O         142.6920  145.0908  162.6759 O.2     1  UNL1       -0.1499
     18 O         142.8613  142.1986  161.8970 O.2     1  UNL1       -0.1499
     19 C         140.6263  144.5548  158.4397 C.ar    1  UNL1       -0.0227
     20 C         141.7288  143.5380  158.4602 C.ar    1  UNL1       -0.0029
     21 C         142.4456  143.2346  159.7424 C.ar    1  UNL1        0.0199
     22 C         142.0599  143.9481  161.0042 C.ar    1  UNL1        0.1251
     23 C         140.9573  144.9649  160.9837 C.ar    1  UNL1        0.0199
     24 C         140.2405  145.2682  159.7015 C.ar    1  UNL1       -0.0029
     25 C         139.9095  144.8582  157.1574 C.3     1  UNL1        0.0189
     26 C         140.4872  146.2424  157.1620 C.3     1  UNL1        0.0044
     27 C         139.3317  143.4739  157.1529 C.3     1  UNL1        0.0044
     28 C         139.1439  146.5687  155.3580 C.3     1  UNL1        0.0003
     29 C         139.1927  145.1615  155.8752 C.3     1  UNL1        0.0040
@<TRIPOS>BOND
     1    28    29    1
     2    29    25    1
     3    25    26    1
     4    25    27    1
     5    25    19    1
     6    19    20   ar
     7    20    21   ar
     8    21    22   ar
     9    22    16    1
    10    16    17    2
    11    16    18    2
    12    16     1    1
    13     1     3    1
    14     3     4   ar
    15     4     5   ar
    16     5     6   ar
    17     9     6    1
    18     9    10    1
    19    10    11    1
    20    11    12    1
    21    13    12    1
    22    13    14    1
    23     6     7   ar
    24     7     8   ar
    25    22    23   ar
    26    23    24   ar
    27    24    19   ar
    28     8     3   ar
    29    13     9    1
    30    14     9    1
    31     1     2    1
    32    11    15    1
