@<TRIPOS>MOLECULE
*****
 30 34 0 0 0
SMALL
GASTEIGER

@<TRIPOS>ATOM
      1 C         142.7480  141.9919  165.7585 C.3     1  UNL1        0.1686
      2 C         143.8195  142.9838  165.4151 C.3     1  UNL1        0.0595
      3 C         144.9571  142.5807  164.5244 C.3     1  UNL1        0.0613
      4 C         145.8596  141.7715  163.6408 C.3     1  UNL1        0.0175
      5 C         145.2792  140.3934  163.5231 C.3     1  UNL1        0.0175
      6 C         144.0179  140.3509  164.3339 C.3     1  UNL1        0.0613
      7 C         142.8141  140.5969  165.2112 C.3     1  UNL1        0.0595
      8 N         143.8188  141.7028  164.9527 N.3     1  UNL1       -0.2727
      9 C         142.6812  142.1058  165.8435 C.3     1  UNL1        0.0797
     10 C         142.7432  141.8205  167.3147 C.3     1  UNL1        0.0208
     11 C         141.6057  142.2236  168.2055 C.3     1  UNL1        0.0064
     12 C         140.4061  142.9120  167.6250 C.3     1  UNL1        0.0261
     13 C         140.3440  143.1973  166.1536 C.ar    1  UNL1       -0.0249
     14 C         139.1444  143.8856  165.5731 C.ar    1  UNL1       -0.0045
     15 C         139.0823  144.1709  164.1018 C.ar    1  UNL1       -0.0003
     16 C         140.2199  143.7678  163.2110 C.ar    1  UNL1       -0.0003
     17 C         141.4195  143.0795  163.7916 C.ar    1  UNL1       -0.0033
     18 C         141.4816  142.7942  165.2629 C.ar    1  UNL1       -0.0117
     19 O         141.6104  142.3949  166.6493 O.3     1  UNL1       -0.4791
     20 C         139.1733  140.1102  168.7918 C.ar    1  UNL1        0.0561
     21 C         138.4126  139.4101  167.7050 C.ar    1  UNL1        0.0047
     22 C         138.7179  139.7049  166.2663 C.ar    1  UNL1        0.0033
     23 C         139.7838  140.6999  165.9144 C.ar    1  UNL1        0.0369
     24 C         140.5445  141.4000  167.0012 C.ar    1  UNL1        0.1385
     25 C         140.2393  141.1052  168.4399 C.ar    1  UNL1        0.0414
     26 N         139.9843  139.7023  171.2261 N.am    1  UNL1       -0.3253
     27 C         138.8681  139.8153  170.2305 C.2     1  UNL1        0.2428
     28 O         137.4466  139.6335  170.6736 O.2     1  UNL1       -0.2704
     29 H         139.7840  139.5087  172.1704 H       1  UNL1        0.1453
     30 H         140.9173  139.8216  170.9353 H       1  UNL1        0.1453
@<TRIPOS>BOND
     1    26    27   am
     2    27    28    2
     3    27    20    1
     4    20    21   ar
     5    21    22   ar
     6    22    23   ar
     7    23    24   ar
     8    24    19    1
     9     1    19    1
    10     1     2    1
    11     3     2    1
    12     3     4    1
    13     4     5    1
    14     6     5    1
    15     6     7    1
    16     6     8    1
    17     8     9    1
    18     9    10    1
    19    10    11    1
    20    11    12    1
    21    12    13    1
    22    13    14   ar
    23    14    15   ar
    24    15    16   ar
    25    16    17   ar
    26    17    18   ar
    27    24    25   ar
    28    25    20   ar
    29     7     1    1
    30    18     9    1
    31     8     3    1
    32    18    13   ar
    33    26    29    1
    34    26    30    1
@<TRIPOS>MOLECULE
*****
 30 34 0 0 0
SMALL
GASTEIGER

@<TRIPOS>ATOM
      1 C         142.6069  142.1636  165.5193 C.3     1  UNL1        0.1686
      2 C         143.9527  142.7172  165.1556 C.3     1  UNL1        0.0595
      3 C         144.0526  143.9977  164.3808 C.3     1  UNL1        0.0613
      4 C         143.6851  145.2464  163.6354 C.3     1  UNL1        0.0175
      5 C         142.1887  145.3465  163.6080 C.3     1  UNL1        0.0175
      6 C         141.6314  144.1596  164.3364 C.3     1  UNL1        0.0613
      7 C         141.3610  142.8905  165.1082 C.3     1  UNL1        0.0595
      8 N         142.7833  143.3259  164.8141 N.3     1  UNL1       -0.2727
      9 C         142.6835  142.0454  165.5889 C.3     1  UNL1        0.0797
     10 C         142.6173  142.0786  167.0871 C.3     1  UNL1        0.0208
     11 C         142.5175  140.7981  167.8619 C.3     1  UNL1        0.0064
     12 C         142.4838  139.4845  167.1386 C.3     1  UNL1        0.0261
     13 C         142.5500  139.4513  165.6404 C.ar    1  UNL1       -0.0249
     14 C         142.5163  138.1377  164.9171 C.ar    1  UNL1       -0.0045
     15 C         142.5825  138.1045  163.4190 C.ar    1  UNL1       -0.0003
     16 C         142.6823  139.3850  162.6441 C.ar    1  UNL1       -0.0003
     17 C         142.7160  140.6986  163.3674 C.ar    1  UNL1       -0.0033
     18 C         142.6498  140.7318  164.8655 C.ar    1  UNL1       -0.0117
     19 O         142.5071  140.8831  166.2942 O.3     1  UNL1       -0.4791
     20 C         139.4222  140.0862  168.6602 C.ar    1  UNL1        0.0561
     21 C         138.4934  139.4088  167.6966 C.ar    1  UNL1        0.0047
     22 C         138.9026  139.2229  166.2655 C.ar    1  UNL1        0.0033
     23 C         140.2404  139.7143  165.7980 C.ar    1  UNL1        0.0369
     24 C         141.1693  140.3917  166.7616 C.ar    1  UNL1        0.1385
     25 C         140.7601  140.5776  168.1927 C.ar    1  UNL1        0.0414
     26 N         137.7227  139.6876  170.5845 N.am    1  UNL1       -0.3253
     27 C         139.0130  140.2721  170.0913 C.2     1  UNL1        0.2428
     28 O         139.8943  141.0426  171.0293 O.2     1  UNL1       -0.2704
     29 H         137.4542  139.8096  171.5237 H       1  UNL1        0.1453
     30 H         137.1443  139.1819  169.9689 H       1  UNL1        0.1453
@<TRIPOS>BOND
     1    26    27   am
     2    27    28    2
     3    27    20    1
     4    20    21   ar
     5    21    22   ar
     6    22    23   ar
     7    23    24   ar
     8    24    19    1
     9     1    19    1
    10     1     2    1
    11     3     2    1
    12     3     4    1
    13     4     5    1
    14     6     5    1
    15     6     7    1
    16     6     8    1
    17     8     9    1
    18     9    10    1
    19    10    11    1
    20    11    12    1
    21    12    13    1
    22    13    14   ar
    23    14    15   ar
    24    15    16   ar
    25    16    17   ar
    26    17    18   ar
    27    24    25   ar
    28    25    20   ar
    29     7     1    1
    30    18     9    1
    31     8     3    1
    32    18    13   ar
    33    26    29    1
    34    26    30    1
@<TRIPOS>MOLECULE
*****
 30 34 0 0 0
SMALL
GASTEIGER

@<TRIPOS>ATOM
      1 C         141.9074  141.2732  164.5849 C.3     1  UNL1        0.1686
      2 C         142.1825  141.1231  163.1181 C.3     1  UNL1        0.0595
      3 C         143.5805  141.2792  162.5974 C.3     1  UNL1        0.0613
      4 C         145.0614  141.5092  162.5326 C.3     1  UNL1        0.0175
      5 C         145.5509  141.7727  163.9258 C.3     1  UNL1        0.0175
      6 C         144.3725  141.7056  164.8516 C.3     1  UNL1        0.0613
      7 C         143.0303  141.5794  165.5311 C.3     1  UNL1        0.0595
      8 N         143.1548  141.4006  164.0305 N.3     1  UNL1       -0.2727
      9 C         141.7567  141.2444  164.5512 C.3     1  UNL1        0.0797
     10 C         141.2801  139.9054  165.0305 C.3     1  UNL1        0.0208
     11 C         139.8821  139.7492  165.5512 C.3     1  UNL1        0.0064
     12 C         138.9607  140.9321  165.5926 C.3     1  UNL1        0.0261
     13 C         139.4373  142.2712  165.1133 C.ar    1  UNL1       -0.0249
     14 C         138.5159  143.4541  165.1547 C.ar    1  UNL1       -0.0045
     15 C         138.9925  144.7931  164.6755 C.ar    1  UNL1       -0.0003
     16 C         140.3905  144.9493  164.1548 C.ar    1  UNL1       -0.0003
     17 C         141.3119  143.7664  164.1134 C.ar    1  UNL1       -0.0033
     18 C         140.8353  142.4274  164.5926 C.ar    1  UNL1       -0.0117
     19 O         140.5093  141.1170  165.1056 O.3     1  UNL1       -0.4791
     20 C         140.4218  142.3110  168.8893 C.ar    1  UNL1        0.0561
     21 C         139.7439  141.1418  169.5399 C.ar    1  UNL1        0.0047
     22 C         139.3212  139.9643  168.7125 C.ar    1  UNL1        0.0033
     23 C         139.5763  139.9560  167.2344 C.ar    1  UNL1        0.0369
     24 C         140.2542  141.1253  166.5837 C.ar    1  UNL1        0.1385
     25 C         140.6770  142.3028  167.4112 C.ar    1  UNL1        0.0414
     26 N         142.1794  143.4840  170.4009 N.am    1  UNL1       -0.3253
     27 C         140.8446  143.4886  169.7168 C.2     1  UNL1        0.2428
     28 O         139.9324  144.6707  169.8602 O.2     1  UNL1       -0.2704
     29 H         142.4569  144.2568  170.9440 H       1  UNL1        0.1453
     30 H         142.7781  142.7081  170.3068 H       1  UNL1        0.1453
@<TRIPOS>BOND
     1    26    27   am
     2    27    28    2
     3    27    20    1
     4    20    21   ar
     5    21    22   ar
     6    22    23   ar
     7    23    24   ar
     8    24    19    1
     9     1    19    1
    10     1     2    1
    11     3     2    1
    12     3     4    1
    13     4     5    1
    14     6     5    1
    15     6     7    1
    16     6     8    1
    17     8     9    1
    18     9    10    1
    19    10    11    1
    20    11    12    1
    21    12    13    1
    22    13    14   ar
    23    14    15   ar
    24    15    16   ar
    25    16    17   ar
    26    17    18   ar
    27    24    25   ar
    28    25    20   ar
    29     7     1    1
    30    18     9    1
    31     8     3    1
    32    18    13   ar
    33    26    29    1
    34    26    30    1
@<TRIPOS>MOLECULE
*****
 30 34 0 0 0
SMALL
GASTEIGER

@<TRIPOS>ATOM
      1 C         142.1009  142.3443  164.9053 C.3     1  UNL1        0.1686
      2 C         141.6208  142.0499  163.5151 C.3     1  UNL1        0.0595
      3 C         142.2697  142.7193  162.3400 C.3     1  UNL1        0.0613
      4 C         143.1739  143.5804  161.5088 C.3     1  UNL1        0.0175
      5 C         144.1029  144.3069  162.4357 C.3     1  UNL1        0.0175
      6 C         143.7728  143.8947  163.8397 C.3     1  UNL1        0.0613
      7 C         143.2298  143.3081  165.1204 C.3     1  UNL1        0.0595
      8 N         142.6398  142.9135  163.7806 N.3     1  UNL1       -0.2727
      9 C         141.9909  142.2441  164.9556 C.3     1  UNL1        0.0797
     10 C         140.7997  142.8743  165.6143 C.3     1  UNL1        0.0208
     11 C         140.1509  142.2049  166.7893 C.3     1  UNL1        0.0064
     12 C         140.6931  140.9052  167.3058 C.3     1  UNL1        0.0261
     13 C         141.8844  140.2749  166.6471 C.ar    1  UNL1       -0.0249
     14 C         142.4267  138.9753  167.1636 C.ar    1  UNL1       -0.0045
     15 C         143.6179  138.3450  166.5049 C.ar    1  UNL1       -0.0003
     16 C         144.2667  139.0145  165.3299 C.ar    1  UNL1       -0.0003
     17 C         143.7245  140.3141  164.8134 C.ar    1  UNL1       -0.0033
     18 C         142.5333  140.9444  165.4721 C.ar    1  UNL1       -0.0117
     19 O         141.4520  141.6749  166.0804 O.3     1  UNL1       -0.4791
     20 C         141.0344  143.2696  169.6904 C.ar    1  UNL1        0.0561
     21 C         142.4041  143.0458  170.2593 C.ar    1  UNL1        0.0047
     22 C         143.4565  142.3650  169.4353 C.ar    1  UNL1        0.0033
     23 C         143.1391  141.9080  168.0423 C.ar    1  UNL1        0.0369
     24 C         141.7693  142.1318  167.4733 C.ar    1  UNL1        0.1385
     25 C         140.7170  142.8126  168.2974 C.ar    1  UNL1        0.0414
     26 N         139.0463  143.1359  171.3576 N.am    1  UNL1       -0.3253
     27 C         139.9820  143.9504  170.5145 C.2     1  UNL1        0.2428
     28 O         139.8654  145.4458  170.4953 O.2     1  UNL1       -0.2704
     29 H         138.3556  143.5827  171.8985 H       1  UNL1        0.1453
     30 H         139.1229  142.1545  171.3702 H       1  UNL1        0.1453
@<TRIPOS>BOND
     1    26    27   am
     2    27    28    2
     3    27    20    1
     4    20    21   ar
     5    21    22   ar
     6    22    23   ar
     7    23    24   ar
     8    24    19    1
     9     1    19    1
    10     1     2    1
    11     3     2    1
    12     3     4    1
    13     4     5    1
    14     6     5    1
    15     6     7    1
    16     6     8    1
    17     8     9    1
    18     9    10    1
    19    10    11    1
    20    11    12    1
    21    12    13    1
    22    13    14   ar
    23    14    15   ar
    24    15    16   ar
    25    16    17   ar
    26    17    18   ar
    27    24    25   ar
    28    25    20   ar
    29     7     1    1
    30    18     9    1
    31     8     3    1
    32    18    13   ar
    33    26    29    1
    34    26    30    1
@<TRIPOS>MOLECULE
*****
 30 34 0 0 0
SMALL
GASTEIGER

@<TRIPOS>ATOM
      1 C         142.7970  141.6221  164.7497 C.3     1  UNL1        0.1686
      2 C         144.0957  142.3653  164.6452 C.3     1  UNL1        0.0595
      3 C         144.0994  143.8227  164.2899 C.3     1  UNL1        0.0613
      4 C         143.6402  145.2035  163.9260 C.3     1  UNL1        0.0175
      5 C         142.1426  145.1867  163.8415 C.3     1  UNL1        0.0175
      6 C         141.6764  143.7955  164.1533 C.3     1  UNL1        0.0613
      7 C         141.5020  142.3363  164.4990 C.3     1  UNL1        0.0595
      8 N         142.8857  142.9525  164.4305 N.3     1  UNL1       -0.2727
      9 C         142.8820  141.4951  164.7857 C.3     1  UNL1        0.0797
     10 C         142.9328  140.4590  163.7024 C.3     1  UNL1        0.0208
     11 C         142.9291  139.0016  164.0576 C.3     1  UNL1        0.0064
     12 C         142.8747  138.5805  165.4962 C.3     1  UNL1        0.0261
     13 C         142.8239  139.6167  166.5797 C.ar    1  UNL1       -0.0249
     14 C         142.7694  139.1956  168.0183 C.ar    1  UNL1       -0.0045
     15 C         142.7186  140.2318  169.1016 C.ar    1  UNL1       -0.0003
     16 C         142.7223  141.6891  168.7464 C.ar    1  UNL1       -0.0003
     17 C         142.7767  142.1102  167.3078 C.ar    1  UNL1       -0.0033
     18 C         142.8275  141.0740  166.2244 C.ar    1  UNL1       -0.0117
     19 O         142.7933  140.1648  165.1050 O.3     1  UNL1       -0.4791
     20 C         139.2473  138.6933  166.1102 C.ar    1  UNL1        0.0561
     21 C         138.9593  137.8156  164.9285 C.ar    1  UNL1        0.0047
     22 C         139.9493  137.7208  163.8056 C.ar    1  UNL1        0.0033
     23 C         141.2273  138.5039  163.8644 C.ar    1  UNL1        0.0369
     24 C         141.5153  139.3818  165.0462 C.ar    1  UNL1        0.1385
     25 C         140.5253  139.4765  166.1691 C.ar    1  UNL1        0.0414
     26 N         138.5800  139.6022  168.4508 N.am    1  UNL1       -0.3253
     27 C         138.2573  138.7881  167.2331 C.2     1  UNL1        0.2428
     28 O         136.9444  138.0686  167.1382 O.2     1  UNL1       -0.2704
     29 H         137.9302  139.6644  169.1878 H       1  UNL1        0.1453
     30 H         139.4416  140.0744  168.5131 H       1  UNL1        0.1453
@<TRIPOS>BOND
     1    26    27   am
     2    27    28    2
     3    27    20    1
     4    20    21   ar
     5    21    22   ar
     6    22    23   ar
     7    23    24   ar
     8    24    19    1
     9     1    19    1
    10     1     2    1
    11     3     2    1
    12     3     4    1
    13     4     5    1
    14     6     5    1
    15     6     7    1
    16     6     8    1
    17     8     9    1
    18     9    10    1
    19    10    11    1
    20    11    12    1
    21    12    13    1
    22    13    14   ar
    23    14    15   ar
    24    15    16   ar
    25    16    17   ar
    26    17    18   ar
    27    24    25   ar
    28    25    20   ar
    29     7     1    1
    30    18     9    1
    31     8     3    1
    32    18    13   ar
    33    26    29    1
    34    26    30    1
@<TRIPOS>MOLECULE
*****
 30 34 0 0 0
SMALL
GASTEIGER

@<TRIPOS>ATOM
      1 C         142.7030  141.9425  166.0751 C.3     1  UNL1        0.1686
      2 C         143.7315  142.8671  165.4943 C.3     1  UNL1        0.0595
      3 C         144.8209  142.3222  164.6189 C.3     1  UNL1        0.0613
      4 C         145.6844  141.3768  163.8375 C.3     1  UNL1        0.0175
      5 C         145.1258  139.9945  164.0028 C.3     1  UNL1        0.0175
      6 C         143.9170  140.0857  164.8863 C.3     1  UNL1        0.0613
      7 C         142.7640  140.4730  165.7805 C.3     1  UNL1        0.0595
      8 N         143.7286  141.5242  165.2672 N.3     1  UNL1       -0.2727
      9 C         142.6392  142.0692  166.1425 C.3     1  UNL1        0.0797
     10 C         142.8119  142.0857  167.6324 C.3     1  UNL1        0.0208
     11 C         141.7225  142.6306  168.5078 C.3     1  UNL1        0.0064
     12 C         140.4604  143.1591  167.8932 C.3     1  UNL1        0.0261
     13 C         140.2876  143.1426  166.4032 C.ar    1  UNL1       -0.0249
     14 C         139.0255  143.6711  165.7887 C.ar    1  UNL1       -0.0045
     15 C         138.8528  143.6546  164.2988 C.ar    1  UNL1       -0.0003
     16 C         139.9422  143.1096  163.4234 C.ar    1  UNL1       -0.0003
     17 C         141.2043  142.5812  164.0380 C.ar    1  UNL1       -0.0033
     18 C         141.3770  142.5977  165.5279 C.ar    1  UNL1       -0.0117
     19 O         141.6136  142.4875  166.9504 O.3     1  UNL1       -0.4791
     20 C         138.8868  139.6378  167.3905 C.ar    1  UNL1        0.0561
     21 C         138.6599  139.6890  168.8723 C.ar    1  UNL1        0.0047
     22 C         139.4176  140.6730  169.7135 C.ar    1  UNL1        0.0033
     23 C         140.4021  141.6058  169.0729 C.ar    1  UNL1        0.0369
     24 C         140.6291  141.5547  167.5910 C.ar    1  UNL1        0.1385
     25 C         139.8714  140.5707  166.7498 C.ar    1  UNL1        0.0414
     26 N         138.5121  138.4422  165.1145 N.am    1  UNL1       -0.3253
     27 C         138.1291  138.6538  166.5493 C.2     1  UNL1        0.2428
     28 O         136.9884  137.8814  167.1428 O.2     1  UNL1       -0.2704
     29 H         138.0148  137.7963  164.5624 H       1  UNL1        0.1453
     30 H         139.2607  138.9491  164.7250 H       1  UNL1        0.1453
@<TRIPOS>BOND
     1    26    27   am
     2    27    28    2
     3    27    20    1
     4    20    21   ar
     5    21    22   ar
     6    22    23   ar
     7    23    24   ar
     8    24    19    1
     9     1    19    1
    10     1     2    1
    11     3     2    1
    12     3     4    1
    13     4     5    1
    14     6     5    1
    15     6     7    1
    16     6     8    1
    17     8     9    1
    18     9    10    1
    19    10    11    1
    20    11    12    1
    21    12    13    1
    22    13    14   ar
    23    14    15   ar
    24    15    16   ar
    25    16    17   ar
    26    17    18   ar
    27    24    25   ar
    28    25    20   ar
    29     7     1    1
    30    18     9    1
    31     8     3    1
    32    18    13   ar
    33    26    29    1
    34    26    30    1
@<TRIPOS>MOLECULE
*****
 30 34 0 0 0
SMALL
GASTEIGER

@<TRIPOS>ATOM
      1 C         142.2805  141.5918  164.7135 C.3     1  UNL1        0.1686
      2 C         142.1152  142.0072  163.2817 C.3     1  UNL1        0.0595
      3 C         143.3211  142.1759  162.4057 C.3     1  UNL1        0.0613
      4 C         144.7421  142.2182  161.9271 C.3     1  UNL1        0.0175
      5 C         145.6292  141.8360  163.0747 C.3     1  UNL1        0.0175
      6 C         144.7565  141.5574  164.2624 C.3     1  UNL1        0.0613
      7 C         143.6517  141.3451  165.2693 C.3     1  UNL1        0.0595
      8 N         143.3300  141.7675  163.8490 N.3     1  UNL1       -0.2727
      9 C         142.1241  141.5988  164.7250 C.3     1  UNL1        0.0797
     10 C         141.6400  142.7444  165.5635 C.3     1  UNL1        0.0208
     11 C         140.4342  142.5757  166.4396 C.3     1  UNL1        0.0064
     12 C         139.7124  141.2613  166.4770 C.3     1  UNL1        0.0261
     13 C         140.1964  140.1156  165.6385 C.ar    1  UNL1       -0.0249
     14 C         139.4746  138.8013  165.6760 C.ar    1  UNL1       -0.0045
     15 C         139.9587  137.6556  164.8374 C.ar    1  UNL1       -0.0003
     16 C         141.1645  137.8244  163.9614 C.ar    1  UNL1       -0.0003
     17 C         141.8863  139.1387  163.9239 C.ar    1  UNL1       -0.0033
     18 C         141.4023  140.2843  164.7625 C.ar    1  UNL1       -0.0117
     19 O         141.0747  141.4231  165.5895 O.3     1  UNL1       -0.4791
     20 C         140.9221  141.7789  169.5392 C.ar    1  UNL1        0.0561
     21 C         141.5832  140.5015  169.9647 C.ar    1  UNL1        0.0047
     22 C         142.0748  139.5312  168.9318 C.ar    1  UNL1        0.0033
     23 C         141.9053  139.8384  167.4734 C.ar    1  UNL1        0.0369
     24 C         141.2442  141.1159  167.0479 C.ar    1  UNL1        0.1385
     25 C         140.7525  142.0862  168.0808 C.ar    1  UNL1        0.0414
     26 N         140.0921  144.1564  170.1784 N.am    1  UNL1       -0.3253
     27 C         140.4304  142.7492  170.5721 C.2     1  UNL1        0.2428
     28 O         140.2772  142.3121  171.9989 O.2     1  UNL1       -0.2704
     29 H         139.7694  144.7932  170.8563 H       1  UNL1        0.1453
     30 H         140.1927  144.4433  169.2420 H       1  UNL1        0.1453
@<TRIPOS>BOND
     1    26    27   am
     2    27    28    2
     3    27    20    1
     4    20    21   ar
     5    21    22   ar
     6    22    23   ar
     7    23    24   ar
     8    24    19    1
     9     1    19    1
    10     1     2    1
    11     3     2    1
    12     3     4    1
    13     4     5    1
    14     6     5    1
    15     6     7    1
    16     6     8    1
    17     8     9    1
    18     9    10    1
    19    10    11    1
    20    11    12    1
    21    12    13    1
    22    13    14   ar
    23    14    15   ar
    24    15    16   ar
    25    16    17   ar
    26    17    18   ar
    27    24    25   ar
    28    25    20   ar
    29     7     1    1
    30    18     9    1
    31     8     3    1
    32    18    13   ar
    33    26    29    1
    34    26    30    1
@<TRIPOS>MOLECULE
*****
 30 34 0 0 0
SMALL
GASTEIGER

@<TRIPOS>ATOM
      1 C         140.5704  140.5677  164.8085 C.3     1  UNL1        0.1686
      2 C         140.3615  140.1555  163.3815 C.3     1  UNL1        0.0595
      3 C         139.6380  138.8795  163.0676 C.3     1  UNL1        0.0613
      4 C         138.8953  137.5855  163.2223 C.3     1  UNL1        0.0175
      5 C         138.7188  137.3248  164.6889 C.3     1  UNL1        0.0175
      6 C         139.3524  138.4578  165.4406 C.3     1  UNL1        0.0613
      7 C         140.0558  139.7040  165.9216 C.3     1  UNL1        0.0595
      8 N         139.9205  139.4186  164.4386 N.3     1  UNL1       -0.2727
      9 C         140.6440  140.6946  164.7524 C.3     1  UNL1        0.0797
     10 C         142.1259  140.6790  164.9838 C.3     1  UNL1        0.0208
     11 C         142.8494  141.9550  165.2977 C.3     1  UNL1        0.0064
     12 C         142.0910  143.2465  165.3802 C.3     1  UNL1        0.0261
     13 C         140.6090  143.2620  165.1487 C.ar    1  UNL1       -0.0249
     14 C         139.8506  144.5535  165.2312 C.ar    1  UNL1       -0.0045
     15 C         138.3687  144.5691  164.9998 C.ar    1  UNL1       -0.0003
     16 C         137.6451  143.2931  164.6859 C.ar    1  UNL1       -0.0003
     17 C         138.4036  142.0017  164.6035 C.ar    1  UNL1       -0.0033
     18 C         139.8855  141.9861  164.8349 C.ar    1  UNL1       -0.0117
     19 O         141.2939  141.8436  165.1223 O.3     1  UNL1       -0.4791
     20 C         141.0933  142.8441  168.9576 C.ar    1  UNL1        0.0561
     21 C         142.5368  142.7434  169.3526 C.ar    1  UNL1        0.0047
     22 C         143.5661  142.3428  168.3376 C.ar    1  UNL1        0.0033
     23 C         143.1518  142.0429  166.9276 C.ar    1  UNL1        0.0369
     24 C         141.7082  142.1436  166.5324 C.ar    1  UNL1        0.1385
     25 C         140.6790  142.5442  167.5474 C.ar    1  UNL1        0.0414
     26 N         139.8990  144.6887  170.3436 N.am    1  UNL1       -0.3253
     27 C         140.0641  143.2448  169.9726 C.2     1  UNL1        0.2428
     28 O         139.2000  142.2013  170.6165 O.2     1  UNL1       -0.2704
     29 H         139.2235  144.9516  171.0098 H       1  UNL1        0.1453
     30 H         140.4662  145.3735  169.9209 H       1  UNL1        0.1453
@<TRIPOS>BOND
     1    26    27   am
     2    27    28    2
     3    27    20    1
     4    20    21   ar
     5    21    22   ar
     6    22    23   ar
     7    23    24   ar
     8    24    19    1
     9     1    19    1
    10     1     2    1
    11     3     2    1
    12     3     4    1
    13     4     5    1
    14     6     5    1
    15     6     7    1
    16     6     8    1
    17     8     9    1
    18     9    10    1
    19    10    11    1
    20    11    12    1
    21    12    13    1
    22    13    14   ar
    23    14    15   ar
    24    15    16   ar
    25    16    17   ar
    26    17    18   ar
    27    24    25   ar
    28    25    20   ar
    29     7     1    1
    30    18     9    1
    31     8     3    1
    32    18    13   ar
    33    26    29    1
    34    26    30    1
@<TRIPOS>MOLECULE
*****
 30 34 0 0 0
SMALL
GASTEIGER

@<TRIPOS>ATOM
      1 C         141.3633  141.9494  165.1313 C.3     1  UNL1        0.1686
      2 C         140.7180  142.6485  163.9716 C.3     1  UNL1        0.0595
      3 C         141.4479  143.7475  163.2579 C.3     1  UNL1        0.0613
      4 C         142.5026  144.7393  162.8655 C.3     1  UNL1        0.0175
      5 C         143.6691  144.5667  163.7926 C.3     1  UNL1        0.0175
      6 C         143.3353  143.4681  164.7579 C.3     1  UNL1        0.0613
      7 C         142.7384  142.3494  165.5773 C.3     1  UNL1        0.0595
      8 N         141.9626  142.9618  164.4274 N.3     1  UNL1       -0.2727
      9 C         141.2327  141.8628  165.1411 C.3     1  UNL1        0.0797
     10 C         140.3839  142.1793  166.3367 C.3     1  UNL1        0.0208
     11 C         139.6540  141.0803  167.0504 C.3     1  UNL1        0.0064
     12 C         139.7729  139.6648  166.5686 C.3     1  UNL1        0.0261
     13 C         140.6217  139.3482  165.3730 C.ar    1  UNL1       -0.0249
     14 C         140.7406  137.9327  164.8912 C.ar    1  UNL1       -0.0045
     15 C         141.5894  137.6162  163.6957 C.ar    1  UNL1       -0.0003
     16 C         142.3194  138.7152  162.9820 C.ar    1  UNL1       -0.0003
     17 C         142.2004  140.1307  163.4638 C.ar    1  UNL1       -0.0033
     18 C         141.3516  140.4472  164.6593 C.ar    1  UNL1       -0.0117
     19 O         140.6334  140.8504  165.8451 O.3     1  UNL1       -0.4791
     20 C         141.1019  139.8996  169.6695 C.ar    1  UNL1        0.0561
     21 C         142.3553  139.0782  169.6059 C.ar    1  UNL1        0.0047
     22 C         143.0349  138.8476  168.2887 C.ar    1  UNL1        0.0033
     23 C         142.4609  139.4383  167.0351 C.ar    1  UNL1        0.0369
     24 C         141.2073  140.2597  167.0987 C.ar    1  UNL1        0.1385
     25 C         140.5278  140.4903  168.4159 C.ar    1  UNL1        0.0414
     26 N         139.5747  139.0511  171.5925 N.am    1  UNL1       -0.3253
     27 C         140.4223  140.1302  170.9867 C.2     1  UNL1        0.2428
     28 O         140.5905  141.4400  171.6982 O.2     1  UNL1       -0.2704
     29 H         139.1287  139.2025  172.4570 H       1  UNL1        0.1453
     30 H         139.4644  138.1914  171.1255 H       1  UNL1        0.1453
@<TRIPOS>BOND
     1    26    27   am
     2    27    28    2
     3    27    20    1
     4    20    21   ar
     5    21    22   ar
     6    22    23   ar
     7    23    24   ar
     8    24    19    1
     9     1    19    1
    10     1     2    1
    11     3     2    1
    12     3     4    1
    13     4     5    1
    14     6     5    1
    15     6     7    1
    16     6     8    1
    17     8     9    1
    18     9    10    1
    19    10    11    1
    20    11    12    1
    21    12    13    1
    22    13    14   ar
    23    14    15   ar
    24    15    16   ar
    25    16    17   ar
    26    17    18   ar
    27    24    25   ar
    28    25    20   ar
    29     7     1    1
    30    18     9    1
    31     8     3    1
    32    18    13   ar
    33    26    29    1
    34    26    30    1
