@<TRIPOS>MOLECULE
*****
 35 40 0 0 0
SMALL
GASTEIGER

@<TRIPOS>ATOM
      1 N         141.4238  138.3679  158.6429 N.ar    1  UNL1       -0.2340
      2 N         141.4925  138.1571  160.1264 N.ar    1  UNL1       -0.1679
      3 C         140.2495  138.7355  160.7349 C.ar    1  UNL1        0.1065
      4 C         139.4125  139.3038  159.6274 C.ar    1  UNL1        0.0860
      5 C         138.0833  139.9989  159.6292 C.ar    1  UNL1        0.1316
      6 N         137.3575  140.2260  160.9221 N.pl3   1  UNL1       -0.3425
      7 N         137.4798  140.4668  158.3381 N.ar    1  UNL1       -0.2093
      8 C         138.2055  140.2396  157.0452 C.ar    1  UNL1        0.2014
      9 N         139.5348  139.5445  157.0435 N.ar    1  UNL1       -0.2050
     10 C         140.1383  139.0767  158.3345 C.ar    1  UNL1        0.1653
     11 H         137.7536  139.9190  161.7695 H       1  UNL1        0.1437
     12 H         136.4851  140.6822  160.9233 H       1  UNL1        0.1437
     13 C         139.9040  138.7441  162.1946 C.ar    1  UNL1        0.0195
     14 C         139.1055  137.6188  162.7830 C.ar    1  UNL1        0.0016
     15 C         138.7601  137.6275  164.2426 C.ar    1  UNL1        0.0001
     16 C         139.2131  138.7614  165.1138 C.ar    1  UNL1        0.0030
     17 C         138.8676  138.7700  166.5735 C.ar    1  UNL1        0.0369
     18 C         139.3206  139.9039  167.4448 C.ar    1  UNL1        0.1384
     19 C         140.1191  141.0292  166.8563 C.ar    1  UNL1        0.0369
     20 C         140.4645  141.0205  165.3967 C.ar    1  UNL1        0.0031
     21 C         140.0115  139.8866  164.5255 C.ar    1  UNL1        0.0002
     22 C         140.3570  139.8780  163.0658 C.ar    1  UNL1        0.0016
     23 O         138.9751  139.9125  168.9044 O.3     1  UNL1       -0.4792
     24 C         139.7760  140.7468  169.8598 C.3     1  UNL1        0.1659
     25 C         140.9767  140.5084  170.7267 C.3     1  UNL1        0.0436
     26 C         140.9087  141.9265  171.2108 C.3     1  UNL1        0.0074
     27 C         139.7080  142.1648  170.3438 C.3     1  UNL1        0.0436
     28 C         142.4589  137.9444  157.6433 C.3     1  UNL1        0.1291
     29 C         141.8265  132.7651  154.6810 C.3     1  UNL1        0.0896
     30 N         141.9846  134.0600  155.4216 N.3     1  UNL1       -0.2715
     31 C         143.0560  134.2032  156.4616 C.3     1  UNL1        0.0722
     32 C         143.2142  135.4980  157.2021 C.3     1  UNL1        0.0194
     33 C         142.3008  136.6496  156.9028 C.3     1  UNL1        0.0272
     34 C         141.2293  136.5063  155.8628 C.3     1  UNL1        0.0194
     35 C         141.0712  135.2115  155.1223 C.3     1  UNL1        0.0722
@<TRIPOS>BOND
     1    29    30    1
     2    30    31    1
     3    31    32    1
     4    32    33    1
     5    33    28    1
     6    28     1    1
     7     1     2   ar
     8     2     3   ar
     9     3    13    1
    10    13    14   ar
    11    14    15   ar
    12    15    16   ar
    13    16    17   ar
    14    17    18   ar
    15    18    23    1
    16    23    24    1
    17    24    25    1
    18    25    26    1
    19    26    27    1
    20    18    19   ar
    21    19    20   ar
    22    20    21   ar
    23    21    22   ar
    24     3     4   ar
    25     4     5   ar
    26     5     6    1
    27     5     7   ar
    28     7     8   ar
    29     8     9   ar
    30     9    10   ar
    31    33    34    1
    32    34    35    1
    33    35    30    1
    34    10     1   ar
    35    22    13   ar
    36    10     4   ar
    37    21    16   ar
    38    27    24    1
    39     6    11    1
    40     6    12    1
@<TRIPOS>MOLECULE
*****
 35 40 0 0 0
SMALL
GASTEIGER

@<TRIPOS>ATOM
      1 N         141.9176  137.8839  158.1413 N.ar    1  UNL1       -0.2340
      2 N         142.0221  137.9810  159.6345 N.ar    1  UNL1       -0.1679
      3 C         140.8394  138.7576  160.1325 C.ar    1  UNL1        0.1065
      4 C         140.0039  139.1406  158.9470 C.ar    1  UNL1        0.0860
      5 C         138.7224  139.9112  158.8291 C.ar    1  UNL1        0.1316
      6 N         138.0561  140.4512  160.0597 N.pl3   1  UNL1       -0.3425
      7 N         138.1073  140.1419  157.4806 N.ar    1  UNL1       -0.2093
      8 C         138.7736  139.6019  156.2500 C.ar    1  UNL1        0.2014
      9 N         140.0552  138.8312  156.3680 N.ar    1  UNL1       -0.2050
     10 C         140.6703  138.6006  157.7164 C.ar    1  UNL1        0.1653
     11 H         138.4598  140.2998  160.9447 H       1  UNL1        0.1437
     12 H         137.2150  140.9570  159.9823 H       1  UNL1        0.1437
     13 C         140.5440  139.0925  161.5645 C.ar    1  UNL1        0.0195
     14 C         141.0306  140.3859  162.1480 C.ar    1  UNL1        0.0016
     15 C         140.7351  140.7207  163.5799 C.ar    1  UNL1        0.0001
     16 C         139.9531  139.7623  164.4284 C.ar    1  UNL1        0.0030
     17 C         139.6577  140.0972  165.8604 C.ar    1  UNL1        0.0369
     18 C         138.8757  139.1388  166.7089 C.ar    1  UNL1        0.1384
     19 C         138.3891  137.8454  166.1253 C.ar    1  UNL1        0.0369
     20 C         138.6845  137.5105  164.6933 C.ar    1  UNL1        0.0031
     21 C         139.4665  138.4690  163.8449 C.ar    1  UNL1        0.0002
     22 C         139.7620  138.1341  162.4129 C.ar    1  UNL1        0.0016
     23 O         138.5802  139.4737  168.1408 O.3     1  UNL1       -0.4792
     24 C         139.6225  140.1463  168.9842 C.3     1  UNL1        0.1659
     25 C         141.0765  139.9070  169.2647 C.3     1  UNL1        0.0436
     26 C         141.0965  141.0976  170.1769 C.3     1  UNL1        0.0074
     27 C         139.6425  141.3369  169.8963 C.3     1  UNL1        0.0436
     28 C         142.8898  137.1917  157.2326 C.3     1  UNL1        0.1291
     29 C         141.7735  131.6089  155.3390 C.3     1  UNL1        0.0896
     30 N         142.0526  133.0046  155.8124 N.3     1  UNL1       -0.2715
     31 C         141.3225  134.1639  155.2015 C.3     1  UNL1        0.0722
     32 C         141.6016  135.5596  155.6749 C.3     1  UNL1        0.0194
     33 C         142.6107  135.7960  156.7592 C.3     1  UNL1        0.0272
     34 C         143.3408  134.6368  157.3701 C.3     1  UNL1        0.0194
     35 C         143.0617  133.2411  156.8967 C.3     1  UNL1        0.0722
@<TRIPOS>BOND
     1    29    30    1
     2    30    31    1
     3    31    32    1
     4    32    33    1
     5    33    28    1
     6    28     1    1
     7     1     2   ar
     8     2     3   ar
     9     3    13    1
    10    13    14   ar
    11    14    15   ar
    12    15    16   ar
    13    16    17   ar
    14    17    18   ar
    15    18    23    1
    16    23    24    1
    17    24    25    1
    18    25    26    1
    19    26    27    1
    20    18    19   ar
    21    19    20   ar
    22    20    21   ar
    23    21    22   ar
    24     3     4   ar
    25     4     5   ar
    26     5     6    1
    27     5     7   ar
    28     7     8   ar
    29     8     9   ar
    30     9    10   ar
    31    33    34    1
    32    34    35    1
    33    35    30    1
    34    10     1   ar
    35    22    13   ar
    36    10     4   ar
    37    21    16   ar
    38    27    24    1
    39     6    11    1
    40     6    12    1
@<TRIPOS>MOLECULE
*****
 35 40 0 0 0
SMALL
GASTEIGER

@<TRIPOS>ATOM
      1 N         142.3311  137.6071  158.1743 N.ar    1  UNL1       -0.2340
      2 N         142.8027  137.6337  159.5980 N.ar    1  UNL1       -0.1679
      3 C         141.7864  138.3813  160.4091 C.ar    1  UNL1        0.1065
      4 C         140.6865  138.8168  159.4868 C.ar    1  UNL1        0.0860
      5 C         139.4220  139.5872  159.7262 C.ar    1  UNL1        0.1316
      6 N         139.0853  140.0657  161.1074 N.pl3   1  UNL1       -0.3425
      7 N         138.4940  139.8792  158.5844 N.ar    1  UNL1       -0.2093
      8 C         138.8306  139.4008  157.2032 C.ar    1  UNL1        0.2014
      9 N         140.0952  138.6303  156.9639 N.ar    1  UNL1       -0.2050
     10 C         141.0231  138.3384  158.1056 C.ar    1  UNL1        0.1653
     11 H         139.6944  139.8740  161.8568 H       1  UNL1        0.1437
     12 H         138.2554  140.5713  161.2646 H       1  UNL1        0.1437
     13 C         141.8573  138.6468  161.8838 C.ar    1  UNL1        0.0195
     14 C         141.3981  137.6019  162.8570 C.ar    1  UNL1        0.0016
     15 C         141.4691  137.8675  164.3315 C.ar    1  UNL1        0.0001
     16 C         141.9993  139.1780  164.8329 C.ar    1  UNL1        0.0030
     17 C         142.0703  139.4435  166.3076 C.ar    1  UNL1        0.0369
     18 C         142.6006  140.7540  166.8090 C.ar    1  UNL1        0.1384
     19 C         143.0599  141.7990  165.8357 C.ar    1  UNL1        0.0369
     20 C         142.9889  141.5334  164.3611 C.ar    1  UNL1        0.0031
     21 C         142.4586  140.2229  163.8598 C.ar    1  UNL1        0.0002
     22 C         142.3876  139.9573  162.3852 C.ar    1  UNL1        0.0016
     23 O         142.6716  141.0196  168.2835 O.3     1  UNL1       -0.4792
     24 C         141.8596  142.1276  168.8860 C.3     1  UNL1        0.1659
     25 C         140.5663  142.8041  168.5397 C.3     1  UNL1        0.0436
     26 C         140.7112  143.6946  169.7380 C.3     1  UNL1        0.0074
     27 C         142.0045  143.0181  170.0842 C.3     1  UNL1        0.0436
     28 C         143.0424  136.9626  157.0217 C.3     1  UNL1        0.1291
     29 C         141.8093  131.2825  155.5330 C.3     1  UNL1        0.0896
     30 N         142.1176  132.7025  155.9052 N.3     1  UNL1       -0.2715
     31 C         141.4252  133.8302  155.1989 C.3     1  UNL1        0.0722
     32 C         141.7334  135.2502  155.5710 C.3     1  UNL1        0.0194
     33 C         142.7341  135.5425  156.6495 C.3     1  UNL1        0.0272
     34 C         143.4266  134.4148  157.3558 C.3     1  UNL1        0.0194
     35 C         143.1183  132.9948  156.9837 C.3     1  UNL1        0.0722
@<TRIPOS>BOND
     1    29    30    1
     2    30    31    1
     3    31    32    1
     4    32    33    1
     5    33    28    1
     6    28     1    1
     7     1     2   ar
     8     2     3   ar
     9     3    13    1
    10    13    14   ar
    11    14    15   ar
    12    15    16   ar
    13    16    17   ar
    14    17    18   ar
    15    18    23    1
    16    23    24    1
    17    24    25    1
    18    25    26    1
    19    26    27    1
    20    18    19   ar
    21    19    20   ar
    22    20    21   ar
    23    21    22   ar
    24     3     4   ar
    25     4     5   ar
    26     5     6    1
    27     5     7   ar
    28     7     8   ar
    29     8     9   ar
    30     9    10   ar
    31    33    34    1
    32    34    35    1
    33    35    30    1
    34    10     1   ar
    35    22    13   ar
    36    10     4   ar
    37    21    16   ar
    38    27    24    1
    39     6    11    1
    40     6    12    1
@<TRIPOS>MOLECULE
*****
 35 40 0 0 0
SMALL
GASTEIGER

@<TRIPOS>ATOM
      1 N         138.4361  142.9779  158.3276 N.ar    1  UNL1       -0.2340
      2 N         138.3542  142.5924  159.7748 N.ar    1  UNL1       -0.1679
      3 C         139.4539  143.3030  160.5067 C.ar    1  UNL1        0.1065
      4 C         140.2155  144.1277  159.5118 C.ar    1  UNL1        0.0860
      5 C         141.4005  145.0356  159.6582 C.ar    1  UNL1        0.1316
      6 N         142.0295  145.2365  161.0050 N.pl3   1  UNL1       -0.3425
      7 N         141.9564  145.7427  158.4577 N.ar    1  UNL1       -0.2093
      8 C         141.3274  145.5418  157.1109 C.ar    1  UNL1        0.2014
      9 N         140.1424  144.6338  156.9646 N.ar    1  UNL1       -0.2050
     10 C         139.5865  143.9268  158.1649 C.ar    1  UNL1        0.1653
     11 H         141.6646  144.7724  161.7928 H       1  UNL1        0.1437
     12 H         142.8073  145.8324  161.1011 H       1  UNL1        0.1437
     13 C         139.7417  143.2059  161.9757 C.ar    1  UNL1        0.0195
     14 C         138.8862  143.9494  162.9582 C.ar    1  UNL1        0.0016
     15 C         139.1739  143.8523  164.4272 C.ar    1  UNL1        0.0001
     16 C         140.3171  143.0118  164.9135 C.ar    1  UNL1        0.0030
     17 C         140.6048  142.9148  166.3826 C.ar    1  UNL1        0.0369
     18 C         141.7481  142.0743  166.8689 C.ar    1  UNL1        0.1384
     19 C         142.6036  141.3308  165.8863 C.ar    1  UNL1        0.0369
     20 C         142.3159  141.4279  164.4174 C.ar    1  UNL1        0.0031
     21 C         141.1726  142.2684  163.9310 C.ar    1  UNL1        0.0002
     22 C         140.8849  142.3654  162.4621 C.ar    1  UNL1        0.0016
     23 O         142.0358  141.9772  168.3379 O.3     1  UNL1       -0.4792
     24 C         141.0107  142.4309  169.3345 C.3     1  UNL1        0.1659
     25 C         140.6340  143.7491  169.9433 C.3     1  UNL1        0.0436
     26 C         139.5610  143.0727  170.7440 C.3     1  UNL1        0.0074
     27 C         139.9377  141.7545  170.1352 C.3     1  UNL1        0.0436
     28 C         137.5272  142.4987  157.2347 C.3     1  UNL1        0.1291
     29 C         138.5771  137.2357  154.5516 C.3     1  UNL1        0.0896
     30 N         138.3146  138.5515  155.2224 N.3     1  UNL1       -0.2715
     31 C         139.2258  139.0326  156.3125 C.3     1  UNL1        0.0722
     32 C         138.9634  140.3483  156.9832 C.3     1  UNL1        0.0194
     33 C         137.7897  141.1830  156.5639 C.3     1  UNL1        0.0272
     34 C         136.8785  140.7019  155.4739 C.3     1  UNL1        0.0194
     35 C         137.1409  139.3861  154.8031 C.3     1  UNL1        0.0722
@<TRIPOS>BOND
     1    29    30    1
     2    30    31    1
     3    31    32    1
     4    32    33    1
     5    33    28    1
     6    28     1    1
     7     1     2   ar
     8     2     3   ar
     9     3    13    1
    10    13    14   ar
    11    14    15   ar
    12    15    16   ar
    13    16    17   ar
    14    17    18   ar
    15    18    23    1
    16    23    24    1
    17    24    25    1
    18    25    26    1
    19    26    27    1
    20    18    19   ar
    21    19    20   ar
    22    20    21   ar
    23    21    22   ar
    24     3     4   ar
    25     4     5   ar
    26     5     6    1
    27     5     7   ar
    28     7     8   ar
    29     8     9   ar
    30     9    10   ar
    31    33    34    1
    32    34    35    1
    33    35    30    1
    34    10     1   ar
    35    22    13   ar
    36    10     4   ar
    37    21    16   ar
    38    27    24    1
    39     6    11    1
    40     6    12    1
@<TRIPOS>MOLECULE
*****
 35 40 0 0 0
SMALL
GASTEIGER

@<TRIPOS>ATOM
      1 N         142.5072  138.4622  157.7156 N.ar    1  UNL1       -0.2340
      2 N         141.8720  138.0081  158.9963 N.ar    1  UNL1       -0.1679
      3 C         142.2177  139.0037  160.0636 C.ar    1  UNL1        0.1065
      4 C         143.0665  140.0732  159.4425 C.ar    1  UNL1        0.0860
      5 C         143.6996  141.3085  160.0109 C.ar    1  UNL1        0.1316
      6 N         143.5207  141.6432  161.4621 N.pl3   1  UNL1       -0.3425
      7 N         144.5117  142.2092  159.1281 N.ar    1  UNL1       -0.2093
      8 C         144.6907  141.8745  157.6769 C.ar    1  UNL1        0.2014
      9 N         144.0575  140.6391  157.1086 N.ar    1  UNL1       -0.2050
     10 C         143.2455  139.7385  157.9913 C.ar    1  UNL1        0.1653
     11 H         142.9877  141.0520  162.0415 H       1  UNL1        0.1437
     12 H         143.9362  142.4539  161.8352 H       1  UNL1        0.1437
     13 C         141.7897  138.9410  161.5000 C.ar    1  UNL1        0.0195
     14 C         142.7323  138.4144  162.5411 C.ar    1  UNL1        0.0016
     15 C         142.3043  138.3517  163.9774 C.ar    1  UNL1        0.0001
     16 C         140.9336  138.8155  164.3724 C.ar    1  UNL1        0.0030
     17 C         140.5056  138.7527  165.8087 C.ar    1  UNL1        0.0369
     18 C         139.1349  139.2165  166.2038 C.ar    1  UNL1        0.1384
     19 C         138.1922  139.7431  165.1625 C.ar    1  UNL1        0.0369
     20 C         138.6202  139.8058  163.7263 C.ar    1  UNL1        0.0031
     21 C         139.9909  139.3420  163.3312 C.ar    1  UNL1        0.0002
     22 C         140.4190  139.4047  161.8950 C.ar    1  UNL1        0.0016
     23 O         138.7068  139.1538  167.6400 O.3     1  UNL1       -0.4792
     24 C         139.2254  140.1623  168.6219 C.3     1  UNL1        0.1659
     25 C         140.2157  141.2874  168.5637 C.3     1  UNL1        0.0436
     26 C         139.9588  141.5885  170.0105 C.3     1  UNL1        0.0074
     27 C         138.9684  140.4634  170.0687 C.3     1  UNL1        0.0436
     28 C         142.4195  137.7628  156.3915 C.3     1  UNL1        0.1291
     29 C         142.4125  131.7672  156.1603 C.3     1  UNL1        0.0896
     30 N         142.4142  133.2662  156.2181 N.3     1  UNL1       -0.2715
     31 C         143.3485  133.9797  157.1497 C.3     1  UNL1        0.0722
     32 C         143.3503  135.4786  157.2075 C.3     1  UNL1        0.0194
     33 C         142.4178  136.2639  156.3337 C.3     1  UNL1        0.0272
     34 C         141.4835  135.5504  155.4020 C.3     1  UNL1        0.0194
     35 C         141.4817  134.0515  155.3442 C.3     1  UNL1        0.0722
@<TRIPOS>BOND
     1    29    30    1
     2    30    31    1
     3    31    32    1
     4    32    33    1
     5    33    28    1
     6    28     1    1
     7     1     2   ar
     8     2     3   ar
     9     3    13    1
    10    13    14   ar
    11    14    15   ar
    12    15    16   ar
    13    16    17   ar
    14    17    18   ar
    15    18    23    1
    16    23    24    1
    17    24    25    1
    18    25    26    1
    19    26    27    1
    20    18    19   ar
    21    19    20   ar
    22    20    21   ar
    23    21    22   ar
    24     3     4   ar
    25     4     5   ar
    26     5     6    1
    27     5     7   ar
    28     7     8   ar
    29     8     9   ar
    30     9    10   ar
    31    33    34    1
    32    34    35    1
    33    35    30    1
    34    10     1   ar
    35    22    13   ar
    36    10     4   ar
    37    21    16   ar
    38    27    24    1
    39     6    11    1
    40     6    12    1
@<TRIPOS>MOLECULE
*****
 35 40 0 0 0
SMALL
GASTEIGER

@<TRIPOS>ATOM
      1 N         141.5257  138.8105  158.1645 N.ar    1  UNL1       -0.2340
      2 N         141.5918  138.5252  159.6356 N.ar    1  UNL1       -0.1679
      3 C         140.3027  138.9786  160.2541 C.ar    1  UNL1        0.1065
      4 C         139.4399  139.5443  159.1652 C.ar    1  UNL1        0.0860
      5 C         138.0636  140.1405  159.1829 C.ar    1  UNL1        0.1316
      6 N         137.3078  140.2444  160.4743 N.pl3   1  UNL1       -0.3425
      7 N         137.4431  140.6328  157.9090 N.ar    1  UNL1       -0.2093
      8 C         138.1989  140.5289  156.6176 C.ar    1  UNL1        0.2014
      9 N         139.5753  139.9326  156.6000 N.ar    1  UNL1       -0.2050
     10 C         140.1957  139.4403  157.8737 C.ar    1  UNL1        0.1653
     11 H         137.7150  139.9213  161.3104 H       1  UNL1        0.1437
     12 H         136.4045  140.6357  160.4859 H       1  UNL1        0.1437
     13 C         139.9401  138.8833  161.7065 C.ar    1  UNL1        0.0195
     14 C         139.2122  137.6765  162.2201 C.ar    1  UNL1        0.0016
     15 C         138.8496  137.5812  163.6725 C.ar    1  UNL1        0.0001
     16 C         139.2148  138.6927  164.6112 C.ar    1  UNL1        0.0030
     17 C         138.8522  138.5973  166.0637 C.ar    1  UNL1        0.0369
     18 C         139.2175  139.7088  167.0024 C.ar    1  UNL1        0.1384
     19 C         139.9454  140.9156  166.4887 C.ar    1  UNL1        0.0369
     20 C         140.3080  141.0109  165.0364 C.ar    1  UNL1        0.0031
     21 C         139.9427  139.8994  164.0976 C.ar    1  UNL1        0.0002
     22 C         140.3053  139.9947  162.6453 C.ar    1  UNL1        0.0016
     23 O         138.8549  139.6135  168.4548 O.3     1  UNL1       -0.4792
     24 C         139.7290  140.2574  169.4899 C.3     1  UNL1        0.1659
     25 C         141.0366  139.9111  170.1381 C.3     1  UNL1        0.0436
     26 C         140.9651  141.1679  170.9537 C.3     1  UNL1        0.0074
     27 C         139.6575  141.5141  170.3054 C.3     1  UNL1        0.0436
     28 C         142.6008  138.5174  157.1603 C.3     1  UNL1        0.1291
     29 C         146.9767  142.5085  156.1992 C.3     1  UNL1        0.0896
     30 N         145.8826  141.5106  156.4395 N.3     1  UNL1       -0.2715
     31 C         145.0023  141.6392  157.6472 C.3     1  UNL1        0.0722
     32 C         143.9084  140.6414  157.8875 C.3     1  UNL1        0.0194
     33 C         143.6947  139.5152  156.9200 C.3     1  UNL1        0.0272
     34 C         144.5751  139.3867  155.7123 C.3     1  UNL1        0.0194
     35 C         145.6690  140.3844  155.4720 C.3     1  UNL1        0.0722
@<TRIPOS>BOND
     1    29    30    1
     2    30    31    1
     3    31    32    1
     4    32    33    1
     5    33    28    1
     6    28     1    1
     7     1     2   ar
     8     2     3   ar
     9     3    13    1
    10    13    14   ar
    11    14    15   ar
    12    15    16   ar
    13    16    17   ar
    14    17    18   ar
    15    18    23    1
    16    23    24    1
    17    24    25    1
    18    25    26    1
    19    26    27    1
    20    18    19   ar
    21    19    20   ar
    22    20    21   ar
    23    21    22   ar
    24     3     4   ar
    25     4     5   ar
    26     5     6    1
    27     5     7   ar
    28     7     8   ar
    29     8     9   ar
    30     9    10   ar
    31    33    34    1
    32    34    35    1
    33    35    30    1
    34    10     1   ar
    35    22    13   ar
    36    10     4   ar
    37    21    16   ar
    38    27    24    1
    39     6    11    1
    40     6    12    1
@<TRIPOS>MOLECULE
*****
 35 40 0 0 0
SMALL
GASTEIGER

@<TRIPOS>ATOM
      1 N         143.9784  141.4746  158.2836 N.ar    1  UNL1       -0.2340
      2 N         143.9168  141.7827  159.7503 N.ar    1  UNL1       -0.1679
      3 C         143.5374  140.5241  160.4728 C.ar    1  UNL1        0.1065
      4 C         143.3645  139.4382  159.4525 C.ar    1  UNL1        0.0860
      5 C         142.9941  137.9903  159.5808 C.ar    1  UNL1        0.1316
      6 N         142.7216  137.4029  160.9338 N.pl3   1  UNL1       -0.3425
      7 N         142.8963  137.1298  158.3560 N.ar    1  UNL1       -0.2093
      8 C         143.1688  137.7172  157.0030 C.ar    1  UNL1        0.2014
      9 N         143.5392  139.1652  156.8748 N.ar    1  UNL1       -0.2050
     10 C         143.6371  140.0256  158.0995 C.ar    1  UNL1        0.1653
     11 H         142.7858  137.9676  161.7376 H       1  UNL1        0.1437
     12 H         142.4785  136.4526  161.0180 H       1  UNL1        0.1437
     13 C         143.3617  140.3772  161.9552 C.ar    1  UNL1        0.0195
     14 C         144.5562  140.1474  162.8329 C.ar    1  UNL1        0.0016
     15 C         144.3804  140.0005  164.3153 C.ar    1  UNL1        0.0001
     16 C         143.0102  140.0834  164.9200 C.ar    1  UNL1        0.0030
     17 C         142.8345  139.9365  166.4025 C.ar    1  UNL1        0.0369
     18 C         141.4643  140.0195  167.0072 C.ar    1  UNL1        0.1384
     19 C         140.2698  140.2493  166.1294 C.ar    1  UNL1        0.0369
     20 C         140.4455  140.3962  164.6470 C.ar    1  UNL1        0.0031
     21 C         141.8157  140.3132  164.0423 C.ar    1  UNL1        0.0002
     22 C         141.9915  140.4601  162.5599 C.ar    1  UNL1        0.0016
     23 O         141.2886  139.8726  168.4895 O.3     1  UNL1       -0.4792
     24 C         140.8202  141.0388  169.3085 C.3     1  UNL1        0.1659
     25 C         140.4895  141.2539  170.7557 C.3     1  UNL1        0.0436
     26 C         140.1577  142.6879  170.4667 C.3     1  UNL1        0.0074
     27 C         140.4884  142.4727  169.0195 C.3     1  UNL1        0.0436
     28 C         144.3211  142.4452  157.1924 C.3     1  UNL1        0.1291
     29 C         149.2713  141.6329  153.9006 C.3     1  UNL1        0.0896
     30 N         148.0337  141.8360  154.7237 N.3     1  UNL1       -0.2715
     31 C         146.6844  141.5593  154.1298 C.3     1  UNL1        0.0722
     32 C         145.4468  141.7624  154.9527 C.3     1  UNL1        0.0194
     33 C         145.5587  142.2421  156.3695 C.3     1  UNL1        0.0272
     34 C         146.9081  142.5187  156.9634 C.3     1  UNL1        0.0194
     35 C         148.1456  142.3157  156.1405 C.3     1  UNL1        0.0722
@<TRIPOS>BOND
     1    29    30    1
     2    30    31    1
     3    31    32    1
     4    32    33    1
     5    33    28    1
     6    28     1    1
     7     1     2   ar
     8     2     3   ar
     9     3    13    1
    10    13    14   ar
    11    14    15   ar
    12    15    16   ar
    13    16    17   ar
    14    17    18   ar
    15    18    23    1
    16    23    24    1
    17    24    25    1
    18    25    26    1
    19    26    27    1
    20    18    19   ar
    21    19    20   ar
    22    20    21   ar
    23    21    22   ar
    24     3     4   ar
    25     4     5   ar
    26     5     6    1
    27     5     7   ar
    28     7     8   ar
    29     8     9   ar
    30     9    10   ar
    31    33    34    1
    32    34    35    1
    33    35    30    1
    34    10     1   ar
    35    22    13   ar
    36    10     4   ar
    37    21    16   ar
    38    27    24    1
    39     6    11    1
    40     6    12    1
@<TRIPOS>MOLECULE
*****
 35 40 0 0 0
SMALL
GASTEIGER

@<TRIPOS>ATOM
      1 N         140.1479  142.4492  164.1134 N.ar    1  UNL1       -0.2340
      2 N         140.5464  141.1836  163.4138 N.ar    1  UNL1       -0.1679
      3 C         140.8703  141.5236  161.9892 C.ar    1  UNL1        0.1065
      4 C         140.6720  142.9994  161.8083 C.ar    1  UNL1        0.0860
      5 C         140.8403  143.8962  160.6178 C.ar    1  UNL1        0.1316
      6 N         141.2867  143.3241  159.3050 N.pl3   1  UNL1       -0.3425
      7 N         140.5621  145.3651  160.7400 N.ar    1  UNL1       -0.2093
      8 C         140.1156  145.9372  162.0528 C.ar    1  UNL1        0.2014
      9 N         139.9473  145.0403  163.2433 N.ar    1  UNL1       -0.2050
     10 C         140.2255  143.5715  163.1211 C.ar    1  UNL1        0.1653
     11 H         141.4693  142.3600  159.2248 H       1  UNL1        0.1437
     12 H         141.3972  143.9127  158.5236 H       1  UNL1        0.1437
     13 C         141.3146  140.5575  160.9312 C.ar    1  UNL1        0.0195
     14 C         142.7583  140.1622  160.8350 C.ar    1  UNL1        0.0016
     15 C         143.2025  139.1961  159.7771 C.ar    1  UNL1        0.0001
     16 C         142.2029  138.6253  158.8153 C.ar    1  UNL1        0.0030
     17 C         142.6472  137.6591  157.7574 C.ar    1  UNL1        0.0369
     18 C         141.6476  137.0882  156.7956 C.ar    1  UNL1        0.1384
     19 C         140.2037  137.4835  156.8919 C.ar    1  UNL1        0.0369
     20 C         139.7596  138.4496  157.9499 C.ar    1  UNL1        0.0031
     21 C         140.7592  139.0205  158.9116 C.ar    1  UNL1        0.0002
     22 C         140.3150  139.9866  159.9695 C.ar    1  UNL1        0.0016
     23 O         142.0918  136.1221  155.7377 O.3     1  UNL1       -0.4792
     24 C         142.3703  134.6925  156.0967 C.3     1  UNL1        0.1659
     25 C         141.8577  133.3624  155.6297 C.3     1  UNL1        0.0436
     26 C         142.7642  132.6709  156.6043 C.3     1  UNL1        0.0074
     27 C         143.2768  134.0010  157.0713 C.3     1  UNL1        0.0436
     28 C         139.7429  142.5712  165.5525 C.3     1  UNL1        0.1291
     29 C         143.9107  142.4123  169.8658 C.3     1  UNL1        0.0896
     30 N         142.8687  142.4520  168.7874 N.3     1  UNL1       -0.2715
     31 C         143.2686  142.2836  167.3515 C.3     1  UNL1        0.0722
     32 C         142.2266  142.3233  166.2732 C.3     1  UNL1        0.0194
     33 C         140.7848  142.5315  166.6308 C.3     1  UNL1        0.0272
     34 C         140.3850  142.6999  168.0667 C.3     1  UNL1        0.0194
     35 C         141.4269  142.6602  169.1450 C.3     1  UNL1        0.0722
@<TRIPOS>BOND
     1    29    30    1
     2    30    31    1
     3    31    32    1
     4    32    33    1
     5    33    28    1
     6    28     1    1
     7     1     2   ar
     8     2     3   ar
     9     3    13    1
    10    13    14   ar
    11    14    15   ar
    12    15    16   ar
    13    16    17   ar
    14    17    18   ar
    15    18    23    1
    16    23    24    1
    17    24    25    1
    18    25    26    1
    19    26    27    1
    20    18    19   ar
    21    19    20   ar
    22    20    21   ar
    23    21    22   ar
    24     3     4   ar
    25     4     5   ar
    26     5     6    1
    27     5     7   ar
    28     7     8   ar
    29     8     9   ar
    30     9    10   ar
    31    33    34    1
    32    34    35    1
    33    35    30    1
    34    10     1   ar
    35    22    13   ar
    36    10     4   ar
    37    21    16   ar
    38    27    24    1
    39     6    11    1
    40     6    12    1
@<TRIPOS>MOLECULE
*****
 35 40 0 0 0
SMALL
GASTEIGER

@<TRIPOS>ATOM
      1 N         143.7736  141.8606  157.4745 N.ar    1  UNL1       -0.2340
      2 N         144.0453  141.4510  158.8917 N.ar    1  UNL1       -0.1679
      3 C         143.3989  142.4573  159.7970 C.ar    1  UNL1        0.1065
      4 C         142.7278  143.4888  158.9393 C.ar    1  UNL1        0.0860
      5 C         141.9358  144.7163  159.2800 C.ar    1  UNL1        0.1316
      6 N         141.7042  145.0850  160.7154 N.pl3   1  UNL1       -0.3425
      7 N         141.3753  145.5750  158.1852 N.ar    1  UNL1       -0.2093
      8 C         141.6069  145.2062  156.7498 C.ar    1  UNL1        0.2014
      9 N         142.3990  143.9787  156.4092 N.ar    1  UNL1       -0.2050
     10 C         142.9594  143.1201  157.5039 C.ar    1  UNL1        0.1653
     11 H         142.0721  144.5214  161.4339 H       1  UNL1        0.1437
     12 H         141.1843  145.8906  160.9389 H       1  UNL1        0.1437
     13 C         143.4199  142.4359  161.2968 C.ar    1  UNL1        0.0195
     14 C         144.3792  143.3125  162.0460 C.ar    1  UNL1        0.0016
     15 C         144.4001  143.2910  163.5457 C.ar    1  UNL1        0.0001
     16 C         143.4619  142.3929  164.2961 C.ar    1  UNL1        0.0030
     17 C         143.4830  142.3715  165.7959 C.ar    1  UNL1        0.0369
     18 C         142.5447  141.4734  166.5463 C.ar    1  UNL1        0.1384
     19 C         141.5855  140.5967  165.7970 C.ar    1  UNL1        0.0369
     20 C         141.5645  140.6182  164.2973 C.ar    1  UNL1        0.0031
     21 C         142.5027  141.5163  163.5469 C.ar    1  UNL1        0.0002
     22 C         142.4817  141.5378  162.0472 C.ar    1  UNL1        0.0016
     23 O         142.5657  141.4519  168.0460 O.3     1  UNL1       -0.4792
     24 C         141.7568  142.4489  168.8218 C.3     1  UNL1        0.1659
     25 C         140.3967  143.0620  168.6664 C.3     1  UNL1        0.0436
     26 C         140.6128  143.8588  169.9188 C.3     1  UNL1        0.0074
     27 C         141.9730  143.2456  170.0740 C.3     1  UNL1        0.0436
     28 C         144.2352  141.1377  156.2439 C.3     1  UNL1        0.1291
     29 C         149.5564  142.4590  153.8068 C.3     1  UNL1        0.0896
     30 N         148.2260  142.1286  154.4161 N.3     1  UNL1       -0.2715
     31 C         147.9842  142.3857  155.8740 C.3     1  UNL1        0.0722
     32 C         146.6540  142.0554  156.4833 C.3     1  UNL1        0.0194
     33 C         145.5655  141.4680  155.6346 C.3     1  UNL1        0.0272
     34 C         145.8073  141.2109  154.1767 C.3     1  UNL1        0.0194
     35 C         147.1376  141.5412  153.5674 C.3     1  UNL1        0.0722
@<TRIPOS>BOND
     1    29    30    1
     2    30    31    1
     3    31    32    1
     4    32    33    1
     5    33    28    1
     6    28     1    1
     7     1     2   ar
     8     2     3   ar
     9     3    13    1
    10    13    14   ar
    11    14    15   ar
    12    15    16   ar
    13    16    17   ar
    14    17    18   ar
    15    18    23    1
    16    23    24    1
    17    24    25    1
    18    25    26    1
    19    26    27    1
    20    18    19   ar
    21    19    20   ar
    22    20    21   ar
    23    21    22   ar
    24     3     4   ar
    25     4     5   ar
    26     5     6    1
    27     5     7   ar
    28     7     8   ar
    29     8     9   ar
    30     9    10   ar
    31    33    34    1
    32    34    35    1
    33    35    30    1
    34    10     1   ar
    35    22    13   ar
    36    10     4   ar
    37    21    16   ar
    38    27    24    1
    39     6    11    1
    40     6    12    1
