@<TRIPOS>MOLECULE
*****
 40 43 0 0 0
SMALL
GASTEIGER

@<TRIPOS>ATOM
      1 C         141.5130  140.9775  166.8984 C.ar    1  UNL1        0.0203
      2 C         142.6069  139.9516  166.9265 C.ar    1  UNL1        0.0310
      3 C         143.3257  139.5868  165.6616 C.ar    1  UNL1        0.1414
      4 F         144.4196  138.5608  165.6897 F       1  UNL1       -0.2041
      5 C         142.9506  140.2479  164.3684 C.ar    1  UNL1        0.0440
      6 C         141.8567  141.2738  164.3402 C.ar    1  UNL1        0.0488
      7 C         141.1379  141.6386  165.6053 C.ar    1  UNL1       -0.0067
      8 C         140.0439  142.6646  165.5771 C.3     1  UNL1        0.0324
      9 C         139.7164  140.4469  168.6986 C.ar    1  UNL1        0.1870
     10 C         138.9977  140.8118  169.9636 C.ar    1  UNL1        0.1629
     11 N         137.9198  139.9163  170.4988 N.pl3   1  UNL1       -0.3401
     12 N         139.3568  142.0721  170.6935 N.ar    1  UNL1       -0.2063
     13 C         140.4346  142.9676  170.1583 C.ar    1  UNL1        0.2002
     14 N         141.1533  142.6027  168.8933 N.ar    1  UNL1       -0.2208
     15 C         140.7942  141.3424  168.1635 C.ar    1  UNL1        0.1194
     16 H         137.6841  139.0891  170.0198 H       1  UNL1        0.1438
     17 H         137.4481  140.1558  171.3291 H       1  UNL1        0.1438
     18 O         139.3573  139.1866  167.9688 O.3     1  UNL1       -0.4693
     19 C         138.1288  139.1417  167.1094 C.3     1  UNL1        0.2270
     20 C         138.1980  139.5854  165.6782 C.3     1  UNL1        0.1410
     21 C         138.9672  139.1523  163.2346 C.2     1  UNL1        0.2493
     22 O         138.6767  140.5829  162.8896 O.2     1  UNL1       -0.2699
     23 N         138.7279  138.6535  164.6289 N.am    1  UNL1       -0.2705
     24 C         139.0184  137.2229  164.9739 C.3     1  UNL1        0.1153
     25 C         140.9724  138.1455  161.9247 C.2     1  UNL1        0.0048
     26 C         139.4971  138.2204  162.1853 C.2     1  UNL1        0.0580
     27 N         141.4815  141.9349  163.0471 N.am    1  UNL1       -0.2805
     28 C         142.1241  143.2319  162.6539 C.2     1  UNL1        0.2517
     29 O         143.1418  143.8679  163.5538 O.2     1  UNL1       -0.2697
     30 H         140.8136  141.5175  162.4565 H       1  UNL1        0.1552
     31 C         141.7490  143.8931  161.3607 C.ar    1  UNL1        0.0810
     32 C         142.4342  143.4935  160.0876 C.ar    1  UNL1        0.0065
     33 C         142.0591  144.1547  158.7946 C.ar    1  UNL1       -0.0040
     34 C         140.9987  145.2154  158.7746 C.ar    1  UNL1       -0.0203
     35 C         140.3135  145.6150  160.0476 C.ar    1  UNL1        0.0255
     36 C         140.6886  144.9539  161.3407 C.ar    1  UNL1        0.1441
     37 F         140.0034  145.3535  162.6139 F       1  UNL1       -0.2040
     38 C         140.6236  145.8766  157.4814 C.3     1  UNL1        0.0224
     39 C         139.6512  146.6753  156.6650 C.3     1  UNL1        0.0047
     40 C         140.9462  146.2230  156.0580 C.3     1  UNL1        0.0047
@<TRIPOS>BOND
     1    25    26    2
     2    26    21    1
     3    21    22    2
     4    21    23   am
     5    23    24    1
     6    23    20    1
     7    20    19    1
     8    19    18    1
     9    18     9    1
    10     9    10   ar
    11    10    11    1
    12    10    12   ar
    13    12    13   ar
    14    13    14   ar
    15    14    15   ar
    16    15     1    1
    17     1     2   ar
    18     2     3   ar
    19     3     4    1
    20     3     5   ar
    21     5     6   ar
    22     6    27    1
    23    27    28   am
    24    28    29    2
    25    28    31    1
    26    31    32   ar
    27    32    33   ar
    28    33    34   ar
    29    34    38    1
    30    38    39    1
    31    39    40    1
    32    34    35   ar
    33    35    36   ar
    34    36    37    1
    35     6     7   ar
    36     7     8    1
    37    15     9   ar
    38     7     1   ar
    39    36    31   ar
    40    40    38    1
    41    11    16    1
    42    11    17    1
    43    27    30    1
@<TRIPOS>MOLECULE
*****
 40 43 0 0 0
SMALL
GASTEIGER

@<TRIPOS>ATOM
      1 C         141.9827  141.4070  161.1681 C.ar    1  UNL1        0.0203
      2 C         143.0444  141.2160  162.2104 C.ar    1  UNL1        0.0310
      3 C         143.8617  139.9583  162.2267 C.ar    1  UNL1        0.1414
      4 F         144.9234  139.7673  163.2690 F       1  UNL1       -0.2041
      5 C         143.6172  138.8916  161.2008 C.ar    1  UNL1        0.0440
      6 C         142.5555  139.0826  160.1586 C.ar    1  UNL1        0.0488
      7 C         141.7382  140.3404  160.1422 C.ar    1  UNL1       -0.0067
      8 C         140.6765  140.5314  159.1000 C.3     1  UNL1        0.0324
      9 C         139.8435  142.7095  161.8591 C.ar    1  UNL1        0.1870
     10 C         139.0263  143.9672  161.8428 C.ar    1  UNL1        0.1629
     11 N         137.7042  144.0119  162.5501 N.pl3   1  UNL1       -0.3401
     12 N         139.5311  145.1802  161.1191 N.ar    1  UNL1       -0.2063
     13 C         140.8531  145.1356  160.4118 C.ar    1  UNL1        0.2002
     14 N         141.6702  143.8778  160.4281 N.ar    1  UNL1       -0.2208
     15 C         141.1655  142.6648  161.1518 C.ar    1  UNL1        0.1194
     16 H         137.3729  143.2157  163.0251 H       1  UNL1        0.1438
     17 H         137.1679  144.8374  162.5394 H       1  UNL1        0.1438
     18 O         139.3387  141.4964  162.5828 O.3     1  UNL1       -0.4693
     19 C         138.2806  140.6364  161.9577 C.3     1  UNL1        0.2270
     20 C         138.1239  139.2081  162.3883 C.3     1  UNL1        0.1410
     21 C         140.1104  137.7915  163.2810 C.2     1  UNL1        0.2493
     22 O         140.4874  137.4334  161.8740 O.2     1  UNL1       -0.2699
     23 N         138.9287  138.6788  163.5382 N.am    1  UNL1       -0.2705
     24 C         138.5517  139.0369  164.9452 C.3     1  UNL1        0.1153
     25 C         142.1149  138.0193  164.9181 C.2     1  UNL1        0.0048
     26 C         140.9152  137.2622  164.4309 C.2     1  UNL1        0.0580
     27 N         142.3110  138.0160  159.1327 N.am    1  UNL1       -0.2805
     28 C         142.9195  138.1355  157.7669 C.2     1  UNL1        0.2517
     29 O         143.7725  139.3216  157.4270 O.2     1  UNL1       -0.2697
     30 H         141.7512  137.2375  159.3558 H       1  UNL1        0.1552
     31 C         142.6751  137.0688  156.7409 C.ar    1  UNL1        0.0810
     32 C         143.8328  136.3368  156.1296 C.ar    1  UNL1        0.0065
     33 C         143.5883  135.2702  155.1037 C.ar    1  UNL1       -0.0040
     34 C         142.1861  134.9356  154.6891 C.ar    1  UNL1       -0.0203
     35 C         141.0284  135.6676  155.3005 C.ar    1  UNL1        0.0255
     36 C         141.2729  136.7342  156.3264 C.ar    1  UNL1        0.1441
     37 F         140.1151  137.4663  156.9378 F       1  UNL1       -0.2040
     38 C         141.9416  133.8690  153.6632 C.3     1  UNL1        0.0224
     39 C         141.9873  132.4272  153.2520 C.3     1  UNL1        0.0047
     40 C         141.4726  133.4633  152.2973 C.3     1  UNL1        0.0047
@<TRIPOS>BOND
     1    25    26    2
     2    26    21    1
     3    21    22    2
     4    21    23   am
     5    23    24    1
     6    23    20    1
     7    20    19    1
     8    19    18    1
     9    18     9    1
    10     9    10   ar
    11    10    11    1
    12    10    12   ar
    13    12    13   ar
    14    13    14   ar
    15    14    15   ar
    16    15     1    1
    17     1     2   ar
    18     2     3   ar
    19     3     4    1
    20     3     5   ar
    21     5     6   ar
    22     6    27    1
    23    27    28   am
    24    28    29    2
    25    28    31    1
    26    31    32   ar
    27    32    33   ar
    28    33    34   ar
    29    34    38    1
    30    38    39    1
    31    39    40    1
    32    34    35   ar
    33    35    36   ar
    34    36    37    1
    35     6     7   ar
    36     7     8    1
    37    15     9   ar
    38     7     1   ar
    39    36    31   ar
    40    40    38    1
    41    11    16    1
    42    11    17    1
    43    27    30    1
@<TRIPOS>MOLECULE
*****
 40 43 0 0 0
SMALL
GASTEIGER

@<TRIPOS>ATOM
      1 C         142.9914  139.2709  158.4062 C.ar    1  UNL1        0.0203
      2 C         143.4879  140.5327  157.7649 C.ar    1  UNL1        0.0310
      3 C         144.0438  141.6372  158.6140 C.ar    1  UNL1        0.1414
      4 F         144.5403  142.8990  157.9727 F       1  UNL1       -0.2041
      5 C         144.1032  141.4799  160.1046 C.ar    1  UNL1        0.0440
      6 C         143.6067  140.2181  160.7460 C.ar    1  UNL1        0.0488
      7 C         143.0508  139.1136  159.8968 C.ar    1  UNL1       -0.0067
      8 C         142.5543  137.8518  160.5381 C.3     1  UNL1        0.0324
      9 C         140.9736  138.1407  157.2226 C.ar    1  UNL1        0.1870
     10 C         140.4177  137.0363  156.3734 C.ar    1  UNL1        0.1629
     11 N         138.9557  137.0105  156.0390 N.pl3   1  UNL1       -0.3401
     12 N         141.3239  135.9575  155.8586 N.ar    1  UNL1       -0.2063
     13 C         142.7859  135.9831  156.1930 C.ar    1  UNL1        0.2002
     14 N         143.3417  137.0876  157.0422 N.ar    1  UNL1       -0.2208
     15 C         142.4355  138.1664  157.5570 C.ar    1  UNL1        0.1194
     16 H         138.3609  137.7186  156.3769 H       1  UNL1        0.1438
     17 H         138.5909  136.2856  155.4816 H       1  UNL1        0.1438
     18 O         140.0674  139.2195  157.7374 O.3     1  UNL1       -0.4693
     19 C         139.3909  139.0598  159.0666 C.3     1  UNL1        0.2270
     20 C         138.3925  140.0800  159.5274 C.3     1  UNL1        0.1410
     21 C         137.7822  141.4386  161.6563 C.2     1  UNL1        0.2493
     22 O         138.0154  142.7171  160.9072 O.2     1  UNL1       -0.2699
     23 N         137.9708  140.1201  160.9664 N.am    1  UNL1       -0.2705
     24 C         137.7377  138.8416  161.7155 C.3     1  UNL1        0.1153
     25 C         138.3851  141.6827  164.1717 C.2     1  UNL1        0.0048
     26 C         137.3606  141.4786  163.0953 C.2     1  UNL1        0.0580
     27 N         143.6660  140.0608  162.2365 N.am    1  UNL1       -0.2805
     28 C         142.4378  140.2955  163.0649 C.2     1  UNL1        0.2517
     29 O         141.1502  140.6875  162.4028 O.2     1  UNL1       -0.2697
     30 H         144.5111  139.8035  162.6711 H       1  UNL1        0.1552
     31 C         142.4971  140.1381  164.5555 C.ar    1  UNL1        0.0810
     32 C         143.0034  138.8599  165.1552 C.ar    1  UNL1        0.0065
     33 C         143.0627  138.7026  166.6457 C.ar    1  UNL1       -0.0040
     34 C         142.6157  139.8236  167.5365 C.ar    1  UNL1       -0.0203
     35 C         142.1093  141.1018  166.9368 C.ar    1  UNL1        0.0255
     36 C         142.0500  141.2591  165.4463 C.ar    1  UNL1        0.1441
     37 F         141.5437  142.5374  164.8466 F       1  UNL1       -0.2040
     38 C         142.6750  139.6663  169.0271 C.3     1  UNL1        0.0224
     39 C         142.7797  140.2742  170.3944 C.3     1  UNL1        0.0047
     40 C         142.6730  138.7859  170.2416 C.3     1  UNL1        0.0047
@<TRIPOS>BOND
     1    25    26    2
     2    26    21    1
     3    21    22    2
     4    21    23   am
     5    23    24    1
     6    23    20    1
     7    20    19    1
     8    19    18    1
     9    18     9    1
    10     9    10   ar
    11    10    11    1
    12    10    12   ar
    13    12    13   ar
    14    13    14   ar
    15    14    15   ar
    16    15     1    1
    17     1     2   ar
    18     2     3   ar
    19     3     4    1
    20     3     5   ar
    21     5     6   ar
    22     6    27    1
    23    27    28   am
    24    28    29    2
    25    28    31    1
    26    31    32   ar
    27    32    33   ar
    28    33    34   ar
    29    34    38    1
    30    38    39    1
    31    39    40    1
    32    34    35   ar
    33    35    36   ar
    34    36    37    1
    35     6     7   ar
    36     7     8    1
    37    15     9   ar
    38     7     1   ar
    39    36    31   ar
    40    40    38    1
    41    11    16    1
    42    11    17    1
    43    27    30    1
@<TRIPOS>MOLECULE
*****
 40 43 0 0 0
SMALL
GASTEIGER

@<TRIPOS>ATOM
      1 C         142.0428  141.0512  165.1730 C.ar    1  UNL1        0.0203
      2 C         143.2014  140.1070  165.0471 C.ar    1  UNL1        0.0310
      3 C         143.8469  139.8856  163.7113 C.ar    1  UNL1        0.1414
      4 F         145.0056  138.9414  163.5855 F       1  UNL1       -0.2041
      5 C         143.3337  140.6086  162.5013 C.ar    1  UNL1        0.0440
      6 C         142.1750  141.5528  162.6272 C.ar    1  UNL1        0.0488
      7 C         141.5295  141.7741  163.9631 C.ar    1  UNL1       -0.0067
      8 C         140.3708  142.7184  164.0890 C.3     1  UNL1        0.0324
      9 C         140.3810  140.2958  167.0218 C.ar    1  UNL1        0.1870
     10 C         139.7356  140.5171  168.3576 C.ar    1  UNL1        0.1629
     11 N         138.7192  139.5404  168.8706 N.pl3   1  UNL1       -0.3401
     12 N         140.1065  141.7152  169.1805 N.ar    1  UNL1       -0.2063
     13 C         141.1229  142.6918  168.6676 C.ar    1  UNL1        0.2002
     14 N         141.7682  142.4705  167.3318 N.ar    1  UNL1       -0.2208
     15 C         141.3973  141.2725  166.5089 C.ar    1  UNL1        0.1194
     16 H         138.4757  138.7541  168.3305 H       1  UNL1        0.1438
     17 H         138.2956  139.6857  169.7473 H       1  UNL1        0.1438
     18 O         140.0100  139.0978  166.1989 O.3     1  UNL1       -0.4693
     19 C         138.6204  138.9662  165.6497 C.3     1  UNL1        0.2270
     20 C         138.1204  139.9475  164.6314 C.3     1  UNL1        0.1410
     21 C         138.0508  140.8080  162.1809 C.2     1  UNL1        0.2493
     22 O         137.0783  141.8765  162.5837 O.2     1  UNL1       -0.2699
     23 N         138.5719  139.8435  163.2047 N.am    1  UNL1       -0.2705
     24 C         139.5444  138.7749  162.8019 C.3     1  UNL1        0.1153
     25 C         138.4359  141.9042  159.8571 C.2     1  UNL1        0.0048
     26 C         138.5024  140.7039  160.7542 C.2     1  UNL1        0.0580
     27 N         141.6617  142.2758  161.4173 N.am    1  UNL1       -0.2805
     28 C         142.3537  143.5162  160.9352 C.2     1  UNL1        0.2517
     29 O         143.5589  144.0337  161.6631 O.2     1  UNL1       -0.2697
     30 H         140.8707  141.9361  160.9396 H       1  UNL1        0.1552
     31 C         141.8405  144.2392  159.7253 C.ar    1  UNL1        0.0810
     32 C         140.5888  145.0607  159.8173 C.ar    1  UNL1        0.0065
     33 C         140.0757  145.7837  158.6073 C.ar    1  UNL1       -0.0040
     34 C         140.8141  145.6851  157.3054 C.ar    1  UNL1       -0.0203
     35 C         142.0658  144.8637  157.2135 C.ar    1  UNL1        0.0255
     36 C         142.5789  144.1407  158.4234 C.ar    1  UNL1        0.1441
     37 F         143.8307  143.3192  158.3315 F       1  UNL1       -0.2040
     38 C         140.3009  146.4081  156.0955 C.3     1  UNL1        0.0224
     39 C         140.5009  146.8940  154.6905 C.3     1  UNL1        0.0047
     40 C         139.2121  147.1745  155.4048 C.3     1  UNL1        0.0047
@<TRIPOS>BOND
     1    25    26    2
     2    26    21    1
     3    21    22    2
     4    21    23   am
     5    23    24    1
     6    23    20    1
     7    20    19    1
     8    19    18    1
     9    18     9    1
    10     9    10   ar
    11    10    11    1
    12    10    12   ar
    13    12    13   ar
    14    13    14   ar
    15    14    15   ar
    16    15     1    1
    17     1     2   ar
    18     2     3   ar
    19     3     4    1
    20     3     5   ar
    21     5     6   ar
    22     6    27    1
    23    27    28   am
    24    28    29    2
    25    28    31    1
    26    31    32   ar
    27    32    33   ar
    28    33    34   ar
    29    34    38    1
    30    38    39    1
    31    39    40    1
    32    34    35   ar
    33    35    36   ar
    34    36    37    1
    35     6     7   ar
    36     7     8    1
    37    15     9   ar
    38     7     1   ar
    39    36    31   ar
    40    40    38    1
    41    11    16    1
    42    11    17    1
    43    27    30    1
@<TRIPOS>MOLECULE
*****
 40 43 0 0 0
SMALL
GASTEIGER

@<TRIPOS>ATOM
      1 C         142.8529  143.0407  159.0387 C.ar    1  UNL1        0.0203
      2 C         141.9173  144.0315  158.4120 C.ar    1  UNL1        0.0310
      3 C         141.0887  144.9327  159.2787 C.ar    1  UNL1        0.1414
      4 F         140.1530  145.9235  158.6520 F       1  UNL1       -0.2041
      5 C         141.1956  144.8430  160.7723 C.ar    1  UNL1        0.0440
      6 C         142.1313  143.8522  161.3990 C.ar    1  UNL1        0.0488
      7 C         142.9599  142.9510  160.5322 C.ar    1  UNL1       -0.0067
      8 C         143.8956  141.9601  161.1589 C.3     1  UNL1        0.0324
      9 C         143.1531  140.7958  157.7657 C.ar    1  UNL1        0.1870
     10 C         143.9817  139.8947  156.8990 C.ar    1  UNL1        0.1629
     11 N         143.4532  138.5509  156.4927 N.pl3   1  UNL1       -0.3401
     12 N         145.3389  140.3374  156.4384 N.ar    1  UNL1       -0.2063
     13 C         145.8675  141.6811  156.8446 C.ar    1  UNL1        0.2002
     14 N         145.0388  142.5822  157.7114 N.ar    1  UNL1       -0.2208
     15 C         143.6816  142.1395  158.1719 C.ar    1  UNL1        0.1194
     16 H         142.5625  138.2604  156.7950 H       1  UNL1        0.1438
     17 H         143.9971  137.9595  155.9238 H       1  UNL1        0.1438
     18 O         141.7959  140.3532  158.2263 O.3     1  UNL1       -0.4693
     19 C         141.6588  139.5261  159.4701 C.3     1  UNL1        0.2270
     20 C         140.5170  138.5632  159.6085 C.3     1  UNL1        0.1410
     21 C         139.7477  138.0752  162.0416 C.2     1  UNL1        0.2493
     22 O         140.9739  137.2396  162.2617 O.2     1  UNL1       -0.2699
     23 N         139.5193  138.7370  160.7151 N.am    1  UNL1       -0.2705
     24 C         138.2932  139.5725  160.4950 C.3     1  UNL1        0.1153
     25 C         139.0583  137.7354  164.5234 C.2     1  UNL1        0.0048
     26 C         138.7500  138.2489  163.1482 C.2     1  UNL1        0.0580
     27 N         142.2382  143.7624  162.8925 N.am    1  UNL1       -0.2805
     28 C         141.5007  142.6872  163.6339 C.2     1  UNL1        0.2517
     29 O         140.6561  141.7017  162.8819 O.2     1  UNL1       -0.2697
     30 H         142.7925  144.4093  163.3860 H       1  UNL1        0.1552
     31 C         141.6077  142.5975  165.1275 C.ar    1  UNL1        0.0810
     32 C         140.3936  142.8159  165.9808 C.ar    1  UNL1        0.0065
     33 C         140.5006  142.7261  167.4743 C.ar    1  UNL1       -0.0040
     34 C         141.8217  142.4179  168.1144 C.ar    1  UNL1       -0.0203
     35 C         143.0358  142.1995  167.2610 C.ar    1  UNL1        0.0255
     36 C         142.9287  142.2893  165.7676 C.ar    1  UNL1        0.1441
     37 F         144.1429  142.0708  164.9141 F       1  UNL1       -0.2040
     38 C         141.9286  142.3282  169.6079 C.3     1  UNL1        0.0224
     39 C         141.5379  141.6770  170.9014 C.3     1  UNL1        0.0047
     40 C         142.5046  142.8239  170.9012 C.3     1  UNL1        0.0047
@<TRIPOS>BOND
     1    25    26    2
     2    26    21    1
     3    21    22    2
     4    21    23   am
     5    23    24    1
     6    23    20    1
     7    20    19    1
     8    19    18    1
     9    18     9    1
    10     9    10   ar
    11    10    11    1
    12    10    12   ar
    13    12    13   ar
    14    13    14   ar
    15    14    15   ar
    16    15     1    1
    17     1     2   ar
    18     2     3   ar
    19     3     4    1
    20     3     5   ar
    21     5     6   ar
    22     6    27    1
    23    27    28   am
    24    28    29    2
    25    28    31    1
    26    31    32   ar
    27    32    33   ar
    28    33    34   ar
    29    34    38    1
    30    38    39    1
    31    39    40    1
    32    34    35   ar
    33    35    36   ar
    34    36    37    1
    35     6     7   ar
    36     7     8    1
    37    15     9   ar
    38     7     1   ar
    39    36    31   ar
    40    40    38    1
    41    11    16    1
    42    11    17    1
    43    27    30    1
@<TRIPOS>MOLECULE
*****
 40 43 0 0 0
SMALL
GASTEIGER

@<TRIPOS>ATOM
      1 C         141.5380  142.4198  166.5129 C.ar    1  UNL1        0.0203
      2 C         140.2845  143.2349  166.6319 C.ar    1  UNL1        0.0310
      3 C         139.6076  143.7543  165.3982 C.ar    1  UNL1        0.1414
      4 F         138.3541  144.5695  165.5173 F       1  UNL1       -0.2041
      5 C         140.1842  143.4584  164.0454 C.ar    1  UNL1        0.0440
      6 C         141.4377  142.6433  163.9264 C.ar    1  UNL1        0.0488
      7 C         142.1146  142.1239  165.1602 C.ar    1  UNL1       -0.0067
      8 C         143.3681  141.3087  165.0412 C.3     1  UNL1        0.0324
      9 C         141.9066  140.5202  168.2467 C.ar    1  UNL1        0.1870
     10 C         142.5834  140.0010  169.4805 C.ar    1  UNL1        0.1629
     11 N         142.2752  138.6207  169.9806 N.pl3   1  UNL1       -0.3401
     12 N         143.5686  140.8618  170.2142 N.ar    1  UNL1       -0.2063
     13 C         143.8769  142.2420  169.7142 C.ar    1  UNL1        0.2002
     14 N         143.2000  142.7613  168.4804 N.ar    1  UNL1       -0.2208
     15 C         142.2149  141.9004  167.7467 C.ar    1  UNL1        0.1194
     16 H         141.6286  138.0557  169.4990 H       1  UNL1        0.1438
     17 H         142.7194  138.2799  170.7903 H       1  UNL1        0.1438
     18 O         140.9214  139.6594  167.5130 O.3     1  UNL1       -0.4693
     19 C         139.4520  139.8131  167.7723 C.3     1  UNL1        0.2270
     20 C         138.4566  139.1855  166.8421 C.3     1  UNL1        0.1410
     21 C         139.2564  138.4509  164.4818 C.2     1  UNL1        0.2493
     22 O         139.8716  137.2177  165.0741 O.2     1  UNL1       -0.2699
     23 N         138.5489  139.4347  165.3658 N.am    1  UNL1       -0.2705
     24 C         137.9336  140.6679  164.7735 C.3     1  UNL1        0.1153
     25 C         138.3089  138.1359  162.0832 C.2     1  UNL1        0.0048
     26 C         139.3486  138.7001  163.0055 C.2     1  UNL1        0.0580
     27 N         142.0144  142.3474  162.5737 N.am    1  UNL1       -0.2805
     28 C         142.5833  143.4582  161.7416 C.2     1  UNL1        0.2517
     29 O         142.5755  144.8650  162.2623 O.2     1  UNL1       -0.2697
     30 H         142.0195  141.4241  162.2319 H       1  UNL1        0.1552
     31 C         143.1600  143.1624  160.3888 C.ar    1  UNL1        0.0810
     32 C         142.4668  143.6563  159.1537 C.ar    1  UNL1        0.0065
     33 C         143.0435  143.3605  157.8010 C.ar    1  UNL1       -0.0040
     34 C         144.3133  142.5708  157.6834 C.ar    1  UNL1       -0.0203
     35 C         145.0065  142.0769  158.9185 C.ar    1  UNL1        0.0255
     36 C         144.4298  142.3727  160.2712 C.ar    1  UNL1        0.1441
     37 F         145.1230  141.8788  161.5064 F       1  UNL1       -0.2040
     38 C         144.8900  142.2749  156.3306 C.3     1  UNL1        0.0224
     39 C         145.2728  141.2862  155.2696 C.3     1  UNL1        0.0047
     40 C         145.5060  142.7513  155.0486 C.3     1  UNL1        0.0047
@<TRIPOS>BOND
     1    25    26    2
     2    26    21    1
     3    21    22    2
     4    21    23   am
     5    23    24    1
     6    23    20    1
     7    20    19    1
     8    19    18    1
     9    18     9    1
    10     9    10   ar
    11    10    11    1
    12    10    12   ar
    13    12    13   ar
    14    13    14   ar
    15    14    15   ar
    16    15     1    1
    17     1     2   ar
    18     2     3   ar
    19     3     4    1
    20     3     5   ar
    21     5     6   ar
    22     6    27    1
    23    27    28   am
    24    28    29    2
    25    28    31    1
    26    31    32   ar
    27    32    33   ar
    28    33    34   ar
    29    34    38    1
    30    38    39    1
    31    39    40    1
    32    34    35   ar
    33    35    36   ar
    34    36    37    1
    35     6     7   ar
    36     7     8    1
    37    15     9   ar
    38     7     1   ar
    39    36    31   ar
    40    40    38    1
    41    11    16    1
    42    11    17    1
    43    27    30    1
@<TRIPOS>MOLECULE
*****
 40 43 0 0 0
SMALL
GASTEIGER

@<TRIPOS>ATOM
      1 C         141.6700  140.1458  162.2458 C.ar    1  UNL1        0.0203
      2 C         142.7818  141.1524  162.2752 C.ar    1  UNL1        0.0310
      3 C         143.9009  141.0629  161.2805 C.ar    1  UNL1        0.1414
      4 F         145.0127  142.0695  161.3098 F       1  UNL1       -0.2041
      5 C         143.9084  139.9669  160.2564 C.ar    1  UNL1        0.0440
      6 C         142.7967  138.9603  160.2271 C.ar    1  UNL1        0.0488
      7 C         141.6775  139.0498  161.2218 C.ar    1  UNL1       -0.0067
      8 C         140.5657  138.0432  161.1925 C.3     1  UNL1        0.0324
      9 C         139.2175  140.7807  162.8224 C.ar    1  UNL1        0.1870
     10 C         138.0984  140.8701  163.8171 C.ar    1  UNL1        0.1629
     11 N         136.7651  141.4155  163.3990 N.pl3   1  UNL1       -0.3401
     12 N         138.3126  140.4143  165.2300 N.ar    1  UNL1       -0.2063
     13 C         139.6459  139.8690  165.6482 C.ar    1  UNL1        0.2002
     14 N         140.7650  139.7795  164.6535 N.ar    1  UNL1       -0.2208
     15 C         140.5508  140.2353  163.2406 C.ar    1  UNL1        0.1194
     16 H         136.6245  141.7147  162.4716 H       1  UNL1        0.1438
     17 H         136.0305  141.4742  164.0519 H       1  UNL1        0.1438
     18 O         139.0034  141.2365  161.4095 O.3     1  UNL1       -0.4693
     19 C         139.4867  142.5887  160.9762 C.3     1  UNL1        0.2270
     20 C         139.1981  143.7944  161.8207 C.3     1  UNL1        0.1410
     21 C         141.5219  144.7322  162.5068 C.2     1  UNL1        0.2493
     22 O         141.9080  144.8333  161.0608 O.2     1  UNL1       -0.2699
     23 N         140.1670  144.2127  162.8867 N.am    1  UNL1       -0.2705
     24 C         139.7810  144.1116  164.3327 C.3     1  UNL1        0.1153
     25 C         143.9468  144.8170  163.4357 C.2     1  UNL1        0.0048
     26 C         142.4908  145.1505  163.5728 C.2     1  UNL1        0.0580
     27 N         142.8041  137.8643  159.2031 N.am    1  UNL1       -0.2805
     28 C         142.1955  138.0962  157.8519 C.2     1  UNL1        0.2517
     29 O         141.5796  139.4242  157.5247 O.2     1  UNL1       -0.2697
     30 H         143.2084  136.9927  159.4178 H       1  UNL1        0.1552
     31 C         142.2029  137.0002  156.8278 C.ar    1  UNL1        0.0810
     32 C         143.4966  136.3524  156.4319 C.ar    1  UNL1        0.0065
     33 C         143.5039  135.2564  155.4078 C.ar    1  UNL1       -0.0040
     34 C         142.2176  134.8082  154.7797 C.ar    1  UNL1       -0.0203
     35 C         140.9240  135.4560  155.1756 C.ar    1  UNL1        0.0255
     36 C         140.9166  136.5520  156.1997 C.ar    1  UNL1        0.1441
     37 F         139.6229  137.1998  156.5956 F       1  UNL1       -0.2040
     38 C         142.2250  133.7121  153.7556 C.3     1  UNL1        0.0224
     39 C         141.8243  133.1915  152.4072 C.3     1  UNL1        0.0047
     40 C         142.6385  132.3344  153.3304 C.3     1  UNL1        0.0047
@<TRIPOS>BOND
     1    25    26    2
     2    26    21    1
     3    21    22    2
     4    21    23   am
     5    23    24    1
     6    23    20    1
     7    20    19    1
     8    19    18    1
     9    18     9    1
    10     9    10   ar
    11    10    11    1
    12    10    12   ar
    13    12    13   ar
    14    13    14   ar
    15    14    15   ar
    16    15     1    1
    17     1     2   ar
    18     2     3   ar
    19     3     4    1
    20     3     5   ar
    21     5     6   ar
    22     6    27    1
    23    27    28   am
    24    28    29    2
    25    28    31    1
    26    31    32   ar
    27    32    33   ar
    28    33    34   ar
    29    34    38    1
    30    38    39    1
    31    39    40    1
    32    34    35   ar
    33    35    36   ar
    34    36    37    1
    35     6     7   ar
    36     7     8    1
    37    15     9   ar
    38     7     1   ar
    39    36    31   ar
    40    40    38    1
    41    11    16    1
    42    11    17    1
    43    27    30    1
@<TRIPOS>MOLECULE
*****
 40 43 0 0 0
SMALL
GASTEIGER

@<TRIPOS>ATOM
      1 C         141.7476  144.1598  158.1382 C.ar    1  UNL1        0.0203
      2 C         142.9599  143.4278  157.6440 C.ar    1  UNL1        0.0310
      3 C         143.9023  142.7914  158.6221 C.ar    1  UNL1        0.1414
      4 F         145.1147  142.0593  158.1279 F       1  UNL1       -0.2041
      5 C         143.6324  142.8870  160.0946 C.ar    1  UNL1        0.0440
      6 C         142.4200  143.6191  160.5888 C.ar    1  UNL1        0.0488
      7 C         141.4776  144.2555  159.6106 C.ar    1  UNL1       -0.0067
      8 C         140.2652  144.9875  160.1048 C.3     1  UNL1        0.0324
      9 C         139.6259  144.0257  156.6446 C.ar    1  UNL1        0.1870
     10 C         138.6836  144.6621  155.6664 C.ar    1  UNL1        0.1629
     11 N         137.5043  143.8915  155.1511 N.pl3   1  UNL1       -0.3401
     12 N         138.9204  146.0691  155.2036 N.ar    1  UNL1       -0.2063
     13 C         140.0996  146.8397  155.7189 C.ar    1  UNL1        0.2002
     14 N         141.0420  146.2032  156.6971 N.ar    1  UNL1       -0.2208
     15 C         140.8051  144.7962  157.1600 C.ar    1  UNL1        0.1194
     16 H         137.3488  142.9680  155.4548 H       1  UNL1        0.1438
     17 H         136.8858  144.3092  154.5090 H       1  UNL1        0.1438
     18 O         139.3891  142.6187  157.1075 O.3     1  UNL1       -0.4693
     19 C         138.2045  142.3028  157.9718 C.3     1  UNL1        0.2270
     20 C         138.3088  142.4302  159.4628 C.3     1  UNL1        0.1410
     21 C         137.8960  141.2892  161.7602 C.2     1  UNL1        0.2493
     22 O         137.4749  142.6074  162.3391 O.2     1  UNL1       -0.2699
     23 N         138.3129  141.2006  160.3220 N.am    1  UNL1       -0.2705
     24 C         138.7341  139.8825  159.7431 C.3     1  UNL1        0.1153
     25 C         138.1919  140.1710  164.0866 C.2     1  UNL1        0.0048
     26 C         137.9002  140.0597  162.6194 C.2     1  UNL1        0.0580
     27 N         142.1501  143.7147  162.0612 N.am    1  UNL1       -0.2805
     28 C         141.6017  142.5311  162.8016 C.2     1  UNL1        0.2517
     29 O         141.3233  141.2517  162.0696 O.2     1  UNL1       -0.2697
     30 H         142.3328  144.5544  162.5416 H       1  UNL1        0.1552
     31 C         141.3317  142.6267  164.2740 C.ar    1  UNL1        0.0810
     32 C         140.0638  143.2605  164.7644 C.ar    1  UNL1        0.0065
     33 C         139.7938  143.3561  166.2368 C.ar    1  UNL1       -0.0040
     34 C         140.7918  142.8179  167.2188 C.ar    1  UNL1       -0.0203
     35 C         142.0598  142.1840  166.7284 C.ar    1  UNL1        0.0255
     36 C         142.3297  142.0885  165.2560 C.ar    1  UNL1        0.1441
     37 F         143.5977  141.4546  164.7655 F       1  UNL1       -0.2040
     38 C         140.5218  142.9135  168.6912 C.3     1  UNL1        0.0224
     39 C         140.5856  143.6846  169.9762 C.3     1  UNL1        0.0047
     40 C         139.9904  142.3080  169.9565 C.3     1  UNL1        0.0047
@<TRIPOS>BOND
     1    25    26    2
     2    26    21    1
     3    21    22    2
     4    21    23   am
     5    23    24    1
     6    23    20    1
     7    20    19    1
     8    19    18    1
     9    18     9    1
    10     9    10   ar
    11    10    11    1
    12    10    12   ar
    13    12    13   ar
    14    13    14   ar
    15    14    15   ar
    16    15     1    1
    17     1     2   ar
    18     2     3   ar
    19     3     4    1
    20     3     5   ar
    21     5     6   ar
    22     6    27    1
    23    27    28   am
    24    28    29    2
    25    28    31    1
    26    31    32   ar
    27    32    33   ar
    28    33    34   ar
    29    34    38    1
    30    38    39    1
    31    39    40    1
    32    34    35   ar
    33    35    36   ar
    34    36    37    1
    35     6     7   ar
    36     7     8    1
    37    15     9   ar
    38     7     1   ar
    39    36    31   ar
    40    40    38    1
    41    11    16    1
    42    11    17    1
    43    27    30    1
@<TRIPOS>MOLECULE
*****
 40 43 0 0 0
SMALL
GASTEIGER

@<TRIPOS>ATOM
      1 C         141.4111  140.2233  161.8593 C.ar    1  UNL1        0.0203
      2 C         142.7169  140.8464  162.2549 C.ar    1  UNL1        0.0310
      3 C         143.9938  140.3771  161.6229 C.ar    1  UNL1        0.1414
      4 F         145.2996  141.0002  162.0184 F       1  UNL1       -0.2041
      5 C         143.9647  139.2847  160.5953 C.ar    1  UNL1        0.0440
      6 C         142.6589  138.6616  160.1998 C.ar    1  UNL1        0.0488
      7 C         141.3820  139.1310  160.8318 C.ar    1  UNL1       -0.0067
      8 C         140.0761  138.5079  160.4363 C.3     1  UNL1        0.0324
      9 C         139.6226  140.0252  163.7335 C.ar    1  UNL1        0.1870
     10 C         138.3459  140.4946  164.3655 C.ar    1  UNL1        0.1629
     11 N         137.8342  139.8272  165.6077 N.pl3   1  UNL1       -0.3401
     12 N         137.5806  141.6313  163.7554 N.ar    1  UNL1       -0.2063
     13 C         138.0921  142.2987  162.5133 C.ar    1  UNL1        0.2002
     14 N         139.3689  141.8294  161.8813 N.ar    1  UNL1       -0.2208
     15 C         140.1342  140.6926  162.4914 C.ar    1  UNL1        0.1194
     16 H         138.3365  139.0811  166.0081 H       1  UNL1        0.1438
     17 H         136.9962  140.1352  166.0225 H       1  UNL1        0.1438
     18 O         140.3879  138.8885  164.3436 O.3     1  UNL1       -0.4693
     19 C         141.5128  139.1672  165.2958 C.3     1  UNL1        0.2270
     20 C         141.2163  139.6100  166.6980 C.3     1  UNL1        0.1410
     21 C         142.5909  141.0368  168.3787 C.2     1  UNL1        0.2493
     22 O         143.0083  139.7881  169.0974 O.2     1  UNL1       -0.2699
     23 N         141.6949  140.9478  167.1790 N.am    1  UNL1       -0.2705
     24 C         141.2775  142.1965  166.4604 C.3     1  UNL1        0.1153
     25 C         144.1183  142.4558  169.9291 C.2     1  UNL1        0.0048
     26 C         143.0695  142.3746  168.8598 C.2     1  UNL1        0.0580
     27 N         142.6298  137.5693  159.1722 N.am    1  UNL1       -0.2805
     28 C         142.3835  137.9022  157.7305 C.2     1  UNL1        0.2517
     29 O         142.1663  139.3274  157.3164 O.2     1  UNL1       -0.2697
     30 H         142.7724  136.6338  159.4440 H       1  UNL1        0.1552
     31 C         142.3544  136.8098  156.7029 C.ar    1  UNL1        0.0810
     32 C         143.6286  136.1349  156.2894 C.ar    1  UNL1        0.0065
     33 C         143.5995  135.0426  155.2619 C.ar    1  UNL1       -0.0040
     34 C         142.2962  134.6252  154.6478 C.ar    1  UNL1       -0.0203
     35 C         141.0220  135.3000  155.0612 C.ar    1  UNL1        0.0255
     36 C         141.0511  136.3923  156.0888 C.ar    1  UNL1        0.1441
     37 F         139.7769  137.0672  156.5024 F       1  UNL1       -0.2040
     38 C         142.2671  133.5328  153.6201 C.3     1  UNL1        0.0224
     39 C         141.8208  133.0180  152.2838 C.3     1  UNL1        0.0047
     40 C         142.6630  132.1556  153.1766 C.3     1  UNL1        0.0047
@<TRIPOS>BOND
     1    25    26    2
     2    26    21    1
     3    21    22    2
     4    21    23   am
     5    23    24    1
     6    23    20    1
     7    20    19    1
     8    19    18    1
     9    18     9    1
    10     9    10   ar
    11    10    11    1
    12    10    12   ar
    13    12    13   ar
    14    13    14   ar
    15    14    15   ar
    16    15     1    1
    17     1     2   ar
    18     2     3   ar
    19     3     4    1
    20     3     5   ar
    21     5     6   ar
    22     6    27    1
    23    27    28   am
    24    28    29    2
    25    28    31    1
    26    31    32   ar
    27    32    33   ar
    28    33    34   ar
    29    34    38    1
    30    38    39    1
    31    39    40    1
    32    34    35   ar
    33    35    36   ar
    34    36    37    1
    35     6     7   ar
    36     7     8    1
    37    15     9   ar
    38     7     1   ar
    39    36    31   ar
    40    40    38    1
    41    11    16    1
    42    11    17    1
    43    27    30    1
