@<TRIPOS>MOLECULE
*****
 28 30 0 0 0
SMALL
GASTEIGER

@<TRIPOS>ATOM
      1 C         141.5641  144.0524  162.8756 C.ar    1  UNL1        0.1354
      2 C         141.6394  143.3136  164.1788 C.ar    1  UNL1        0.0581
      3 C         142.9647  143.1142  164.8524 C.ar    1  UNL1        0.1393
      4 N         144.2147  143.6537  164.2228 N.ar    1  UNL1       -0.2192
      5 C         144.1394  144.3926  162.9195 C.ar    1  UNL1        0.2002
      6 N         142.8141  144.5919  162.2459 N.ar    1  UNL1       -0.2090
      7 C         143.0400  142.3753  166.1557 C.2     1  UNL1        0.2688
      8 O         143.9156  142.8894  167.2598 O.2     1  UNL1       -0.2681
      9 N         142.2398  141.1223  166.3547 N.am    1  UNL1       -0.2580
     10 H         141.6652  140.7849  165.6300 H       1  UNL1        0.1572
     11 C         142.3151  140.3834  167.6579 C.ar    1  UNL1        0.1884
     12 N         143.1324  139.1553  167.9292 N.ar    1  UNL1       -0.1252
     13 N         142.9087  138.7557  169.3576 N.ar    1  UNL1       -0.1374
     14 C         141.9530  139.7370  169.9691 C.ar    1  UNL1        0.1605
     15 S         141.5862  140.7429  168.9186 S.2     1  UNL1       -0.0283
     16 C         139.6351  145.6229  162.1254 C.3     1  UNL1        0.1139
     17 N         140.2387  144.2518  162.2020 N.pl3   1  UNL1       -0.2872
     18 C         139.5171  143.0801  161.6050 C.3     1  UNL1        0.1205
     19 C         139.2856  141.8450  162.4242 C.ar    1  UNL1        0.0168
     20 C         138.2886  141.8642  163.5447 C.ar    1  UNL1        0.0004
     21 C         138.0572  140.6291  164.3639 C.ar    1  UNL1        0.0228
     22 C         138.8229  139.3749  164.0626 C.ar    1  UNL1        0.1526
     23 N         139.8199  139.3558  162.9421 N.ar    1  UNL1       -0.2401
     24 C         140.0513  140.5909  162.1229 C.ar    1  UNL1        0.0961
     25 C         138.5915  138.1399  164.8818 C.3     1  UNL1        0.4348
     26 F         138.3600  136.9049  165.7010 F       1  UNL1       -0.1644
     27 F         139.2328  137.3089  163.8103 F       1  UNL1       -0.1644
     28 F         137.9501  138.9708  165.9533 F       1  UNL1       -0.1644
@<TRIPOS>BOND
     1    16    17    1
     2    17    18    1
     3    18    19    1
     4    19    20   ar
     5    20    21   ar
     6    21    22   ar
     7    22    25    1
     8    25    26    1
     9    25    27    1
    10    25    28    1
    11    22    23   ar
    12    23    24   ar
    13    17     1    1
    14     1     2   ar
    15     2     3   ar
    16     3     7    1
    17     7     8    2
    18     7     9   am
    19     9    11    1
    20    11    12   ar
    21    12    13   ar
    22    13    14   ar
    23    14    15   ar
    24     3     4   ar
    25     4     5   ar
    26     5     6   ar
    27    24    19   ar
    28     6     1   ar
    29    15    11   ar
    30     9    10    1
@<TRIPOS>MOLECULE
*****
 28 30 0 0 0
SMALL
GASTEIGER

@<TRIPOS>ATOM
      1 C         140.3101  139.0628  164.7861 C.ar    1  UNL1        0.1354
      2 C         140.1891  140.2180  163.8370 C.ar    1  UNL1        0.0581
      3 C         139.0045  141.1346  163.9182 C.ar    1  UNL1        0.1393
      4 N         137.9409  140.8960  164.9486 N.ar    1  UNL1       -0.2192
      5 C         138.0619  139.7408  165.8978 C.ar    1  UNL1        0.2002
      6 N         139.2465  138.8242  165.8166 N.ar    1  UNL1       -0.2090
      7 C         138.8836  142.2897  162.9689 C.2     1  UNL1        0.2688
      8 O         137.5891  142.5405  162.2539 O.2     1  UNL1       -0.2681
      9 N         140.0571  143.1941  162.7349 N.am    1  UNL1       -0.2580
     10 H         140.9068  143.0295  163.2042 H       1  UNL1        0.1572
     11 C         139.9362  144.3493  161.7857 C.ar    1  UNL1        0.1884
     12 N         139.1582  145.6093  162.0248 N.ar    1  UNL1       -0.1252
     13 N         139.3132  146.4860  160.8177 N.ar    1  UNL1       -0.1374
     14 C         140.1871  145.7678  159.8324 C.ar    1  UNL1        0.1605
     15 S         140.5721  144.4473  160.4307 S.2     1  UNL1       -0.0283
     16 C         141.3654  136.8112  164.0334 C.3     1  UNL1        0.1139
     17 N         141.4948  138.1463  164.7049 N.pl3   1  UNL1       -0.2872
     18 C         142.8087  138.5648  165.2951 C.3     1  UNL1        0.1205
     19 C         142.8480  139.6005  166.3794 C.ar    1  UNL1        0.0168
     20 C         142.6627  139.1945  167.8115 C.ar    1  UNL1        0.0004
     21 C         142.7020  140.2302  168.8957 C.ar    1  UNL1        0.0228
     22 C         142.9265  141.6720  168.5480 C.ar    1  UNL1        0.1526
     23 N         143.1118  142.0780  167.1159 N.ar    1  UNL1       -0.2401
     24 C         143.0725  141.0423  166.0317 C.ar    1  UNL1        0.0961
     25 C         142.9658  142.7077  169.6323 C.3     1  UNL1        0.4348
     26 F         143.0051  143.7434  170.7166 F       1  UNL1       -0.1644
     27 F         141.5317  143.0506  169.3569 F       1  UNL1       -0.1644
     28 F         144.3998  142.3649  169.9078 F       1  UNL1       -0.1644
@<TRIPOS>BOND
     1    16    17    1
     2    17    18    1
     3    18    19    1
     4    19    20   ar
     5    20    21   ar
     6    21    22   ar
     7    22    25    1
     8    25    26    1
     9    25    27    1
    10    25    28    1
    11    22    23   ar
    12    23    24   ar
    13    17     1    1
    14     1     2   ar
    15     2     3   ar
    16     3     7    1
    17     7     8    2
    18     7     9   am
    19     9    11    1
    20    11    12   ar
    21    12    13   ar
    22    13    14   ar
    23    14    15   ar
    24     3     4   ar
    25     4     5   ar
    26     5     6   ar
    27    24    19   ar
    28     6     1   ar
    29    15    11   ar
    30     9    10    1
@<TRIPOS>MOLECULE
*****
 28 30 0 0 0
SMALL
GASTEIGER

@<TRIPOS>ATOM
      1 C         138.2272  139.5936  163.1434 C.ar    1  UNL1        0.1354
      2 C         138.3782  140.0077  164.5772 C.ar    1  UNL1        0.0581
      3 C         138.8163  139.0068  165.6048 C.ar    1  UNL1        0.1393
      4 N         139.1034  137.5916  165.1987 N.ar    1  UNL1       -0.2192
      5 C         138.9524  137.1774  163.7649 C.ar    1  UNL1        0.2002
      6 N         138.5143  138.1784  162.7373 N.ar    1  UNL1       -0.2090
      7 C         138.9672  139.4210  167.0386 C.2     1  UNL1        0.2688
      8 O         137.9793  138.9487  168.0637 O.2     1  UNL1       -0.2681
      9 N         140.1062  140.3074  167.4472 N.am    1  UNL1       -0.2580
     10 H         140.7546  140.6174  166.7744 H       1  UNL1        0.1572
     11 C         140.2572  140.7216  168.8810 C.ar    1  UNL1        0.1884
     12 N         139.7057  141.9715  169.5004 N.ar    1  UNL1       -0.1252
     13 N         140.0939  141.9810  170.9493 N.ar    1  UNL1       -0.1374
     14 C         140.8853  140.7370  171.2252 C.ar    1  UNL1        0.1605
     15 S         140.9863  139.9587  169.9470 S.2     1  UNL1       -0.0283
     16 C         137.3557  140.1328  160.7560 C.3     1  UNL1        0.1139
     17 N         137.7891  140.5946  162.1158 N.pl3   1  UNL1       -0.2872
     18 C         137.7843  142.0574  162.4479 C.3     1  UNL1        0.1205
     19 C         139.0810  142.7920  162.6185 C.ar    1  UNL1        0.0168
     20 C         139.1624  143.9628  163.5526 C.ar    1  UNL1        0.0004
     21 C         140.4590  144.6973  163.7232 C.ar    1  UNL1        0.0228
     22 C         141.6742  144.2611  162.9597 C.ar    1  UNL1        0.1526
     23 N         141.5928  143.0903  162.0256 N.ar    1  UNL1       -0.2401
     24 C         140.2962  142.3557  161.8550 C.ar    1  UNL1        0.0961
     25 C         142.9709  144.9957  163.1303 C.3     1  UNL1        0.4348
     26 F         144.2675  145.7303  163.3009 F       1  UNL1       -0.1644
     27 F         142.3591  145.8219  164.2226 F       1  UNL1       -0.1644
     28 F         143.5826  144.1695  162.0380 F       1  UNL1       -0.1644
@<TRIPOS>BOND
     1    16    17    1
     2    17    18    1
     3    18    19    1
     4    19    20   ar
     5    20    21   ar
     6    21    22   ar
     7    22    25    1
     8    25    26    1
     9    25    27    1
    10    25    28    1
    11    22    23   ar
    12    23    24   ar
    13    17     1    1
    14     1     2   ar
    15     2     3   ar
    16     3     7    1
    17     7     8    2
    18     7     9   am
    19     9    11    1
    20    11    12   ar
    21    12    13   ar
    22    13    14   ar
    23    14    15   ar
    24     3     4   ar
    25     4     5   ar
    26     5     6   ar
    27    24    19   ar
    28     6     1   ar
    29    15    11   ar
    30     9    10    1
@<TRIPOS>MOLECULE
*****
 28 30 0 0 0
SMALL
GASTEIGER

@<TRIPOS>ATOM
      1 C         141.2194  138.1362  163.1843 C.ar    1  UNL1        0.1354
      2 C         141.0585  138.6745  164.5751 C.ar    1  UNL1        0.0581
      3 C         139.7168  138.6333  165.2447 C.ar    1  UNL1        0.1393
      4 N         138.5362  138.0539  164.5235 N.ar    1  UNL1       -0.2192
      5 C         138.6971  137.5155  163.1326 C.ar    1  UNL1        0.2002
      6 N         140.0387  137.5567  162.4631 N.ar    1  UNL1       -0.2090
      7 C         139.5559  139.1717  166.6355 C.2     1  UNL1        0.2688
      8 O         138.2805  138.9347  167.3885 O.2     1  UNL1       -0.2681
      9 N         140.6704  139.9470  167.2732 N.am    1  UNL1       -0.2580
     10 H         141.5075  140.1026  166.7789 H       1  UNL1        0.1572
     11 C         140.5096  140.4854  168.6640 C.ar    1  UNL1        0.1884
     12 N         140.4727  139.6737  169.9248 N.ar    1  UNL1       -0.1252
     13 N         140.2977  140.6166  171.0782 N.ar    1  UNL1       -0.1374
     14 C         140.2263  142.0111  170.5301 C.ar    1  UNL1        0.1605
     15 S         140.3573  141.9300  169.0380 S.2     1  UNL1       -0.0283
     16 C         142.7244  137.6289  161.1282 C.3     1  UNL1        0.1139
     17 N         142.5611  138.1773  162.5148 N.pl3   1  UNL1       -0.2872
     18 C         143.7394  138.7668  163.2318 C.3     1  UNL1        0.1205
     19 C         143.7949  140.2423  163.4965 C.ar    1  UNL1        0.0168
     20 C         144.1806  140.7465  164.8555 C.ar    1  UNL1        0.0004
     21 C         144.2362  142.2219  165.1201 C.ar    1  UNL1        0.0228
     22 C         143.9060  143.1931  164.0257 C.ar    1  UNL1        0.1526
     23 N         143.5203  142.6889  162.6667 N.ar    1  UNL1       -0.2401
     24 C         143.4648  141.2135  162.4021 C.ar    1  UNL1        0.0961
     25 C         143.9616  144.6686  164.2904 C.3     1  UNL1        0.4348
     26 F         144.0172  146.1439  164.5551 F       1  UNL1       -0.1644
     27 F         143.1749  144.9228  163.0388 F       1  UNL1       -0.1644
     28 F         144.7483  144.4144  165.5419 F       1  UNL1       -0.1644
@<TRIPOS>BOND
     1    16    17    1
     2    17    18    1
     3    18    19    1
     4    19    20   ar
     5    20    21   ar
     6    21    22   ar
     7    22    25    1
     8    25    26    1
     9    25    27    1
    10    25    28    1
    11    22    23   ar
    12    23    24   ar
    13    17     1    1
    14     1     2   ar
    15     2     3   ar
    16     3     7    1
    17     7     8    2
    18     7     9   am
    19     9    11    1
    20    11    12   ar
    21    12    13   ar
    22    13    14   ar
    23    14    15   ar
    24     3     4   ar
    25     4     5   ar
    26     5     6   ar
    27    24    19   ar
    28     6     1   ar
    29    15    11   ar
    30     9    10    1
@<TRIPOS>MOLECULE
*****
 28 30 0 0 0
SMALL
GASTEIGER

@<TRIPOS>ATOM
      1 C         141.4540  144.8840  162.9118 C.ar    1  UNL1        0.1354
      2 C         142.0284  143.9644  161.8753 C.ar    1  UNL1        0.0581
      3 C         143.4727  143.5655  161.9444 C.ar    1  UNL1        0.1393
      4 N         144.3426  144.0862  163.0499 N.ar    1  UNL1       -0.2192
      5 C         143.7682  145.0058  164.0864 C.ar    1  UNL1        0.2002
      6 N         142.3239  145.4048  164.0173 N.ar    1  UNL1       -0.2090
      7 C         144.0472  142.6458  160.9078 C.2     1  UNL1        0.2688
      8 O         145.0277  141.5837  161.3083 O.2     1  UNL1       -0.2681
      9 N         143.6410  142.7884  159.4709 N.am    1  UNL1       -0.2580
     10 H         142.9975  143.4855  159.2081 H       1  UNL1        0.1572
     11 C         144.2154  141.8688  158.4344 C.ar    1  UNL1        0.1884
     12 N         143.8677  140.4213  158.2500 N.ar    1  UNL1       -0.1252
     13 N         144.6757  139.8931  157.1019 N.ar    1  UNL1       -0.1374
     14 C         145.5229  141.0141  156.5769 C.ar    1  UNL1        0.1605
     15 S         145.2384  142.2351  157.4004 S.2     1  UNL1       -0.0283
     16 C         139.5078  146.0847  161.6784 C.3     1  UNL1        0.1139
     17 N         140.0096  145.2830  162.8427 N.pl3   1  UNL1       -0.2872
     18 C         139.0671  144.8802  163.9379 C.3     1  UNL1        0.1205
     19 C         138.9043  143.4318  164.2923 C.ar    1  UNL1        0.0168
     20 C         139.6547  142.8555  165.4562 C.ar    1  UNL1        0.0004
     21 C         139.4919  141.4071  165.8106 C.ar    1  UNL1        0.0228
     22 C         138.5786  140.5350  165.0011 C.ar    1  UNL1        0.1526
     23 N         137.8281  141.1113  163.8372 N.ar    1  UNL1       -0.2401
     24 C         137.9910  142.5597  163.4828 C.ar    1  UNL1        0.0961
     25 C         138.4157  139.0865  165.3555 C.3     1  UNL1        0.4348
     26 F         138.2529  137.6382  165.7098 F       1  UNL1       -0.1644
     27 F         138.2728  139.4565  166.8021 F       1  UNL1       -0.1644
     28 F         138.5587  138.7166  163.9089 F       1  UNL1       -0.1644
@<TRIPOS>BOND
     1    16    17    1
     2    17    18    1
     3    18    19    1
     4    19    20   ar
     5    20    21   ar
     6    21    22   ar
     7    22    25    1
     8    25    26    1
     9    25    27    1
    10    25    28    1
    11    22    23   ar
    12    23    24   ar
    13    17     1    1
    14     1     2   ar
    15     2     3   ar
    16     3     7    1
    17     7     8    2
    18     7     9   am
    19     9    11    1
    20    11    12   ar
    21    12    13   ar
    22    13    14   ar
    23    14    15   ar
    24     3     4   ar
    25     4     5   ar
    26     5     6   ar
    27    24    19   ar
    28     6     1   ar
    29    15    11   ar
    30     9    10    1
@<TRIPOS>MOLECULE
*****
 28 30 0 0 0
SMALL
GASTEIGER

@<TRIPOS>ATOM
      1 C         139.6052  140.5275  167.2537 C.ar    1  UNL1        0.1354
      2 C         139.5783  141.5495  166.1561 C.ar    1  UNL1        0.0581
      3 C         138.8159  141.2746  164.8939 C.ar    1  UNL1        0.1393
      4 N         138.0803  139.9778  164.7294 N.ar    1  UNL1       -0.2192
      5 C         138.1071  138.9558  165.8270 C.ar    1  UNL1        0.2002
      6 N         138.8696  139.2306  167.0892 N.ar    1  UNL1       -0.2090
      7 C         138.7890  142.2967  163.7963 C.2     1  UNL1        0.2688
      8 O         137.6088  142.3759  162.8740 O.2     1  UNL1       -0.2681
      9 N         139.9425  143.2395  163.6210 N.am    1  UNL1       -0.2580
     10 H         140.7171  143.1874  164.2264 H       1  UNL1        0.1572
     11 C         139.9157  144.2615  162.5234 C.ar    1  UNL1        0.1884
     12 N         138.9586  145.4112  162.4124 N.ar    1  UNL1       -0.1252
     13 N         139.2927  146.1735  161.1645 N.ar    1  UNL1       -0.1374
     14 C         140.4562  145.4949  160.5043 C.ar    1  UNL1        0.1605
     15 S         140.8412  144.3133  161.3442 S.2     1  UNL1       -0.0283
     16 C         139.6333  141.1760  169.7695 C.3     1  UNL1        0.1139
     17 N         140.3676  140.8024  168.5159 N.pl3   1  UNL1       -0.2872
     18 C         141.8643  140.7036  168.5246 C.3     1  UNL1        0.1205
     19 C         142.6423  140.9923  167.2751 C.ar    1  UNL1        0.0168
     20 C         143.1128  142.3878  166.9901 C.ar    1  UNL1        0.0004
     21 C         143.8907  142.6765  165.7406 C.ar    1  UNL1        0.0228
     22 C         144.1983  141.5697  164.7760 C.ar    1  UNL1        0.1526
     23 N         143.7278  140.1742  165.0609 N.ar    1  UNL1       -0.2401
     24 C         142.9498  139.8855  166.3105 C.ar    1  UNL1        0.0961
     25 C         144.9763  141.8584  163.5264 C.3     1  UNL1        0.4348
     26 F         145.7542  142.1472  162.2769 F       1  UNL1       -0.1644
     27 F         145.9822  140.8145  163.9114 F       1  UNL1       -0.1644
     28 F         143.9704  142.9024  163.1414 F       1  UNL1       -0.1644
@<TRIPOS>BOND
     1    16    17    1
     2    17    18    1
     3    18    19    1
     4    19    20   ar
     5    20    21   ar
     6    21    22   ar
     7    22    25    1
     8    25    26    1
     9    25    27    1
    10    25    28    1
    11    22    23   ar
    12    23    24   ar
    13    17     1    1
    14     1     2   ar
    15     2     3   ar
    16     3     7    1
    17     7     8    2
    18     7     9   am
    19     9    11    1
    20    11    12   ar
    21    12    13   ar
    22    13    14   ar
    23    14    15   ar
    24     3     4   ar
    25     4     5   ar
    26     5     6   ar
    27    24    19   ar
    28     6     1   ar
    29    15    11   ar
    30     9    10    1
@<TRIPOS>MOLECULE
*****
 28 30 0 0 0
SMALL
GASTEIGER

@<TRIPOS>ATOM
      1 C         141.7352  138.1811  162.4213 C.ar    1  UNL1        0.1354
      2 C         141.9589  138.6726  163.8207 C.ar    1  UNL1        0.0581
      3 C         140.8426  138.6207  164.8212 C.ar    1  UNL1        0.1393
      4 N         139.5026  138.0772  164.4224 N.ar    1  UNL1       -0.2192
      5 C         139.2789  137.5856  163.0229 C.ar    1  UNL1        0.2002
      6 N         140.3952  137.6376  162.0224 N.ar    1  UNL1       -0.2090
      7 C         141.0663  139.1122  166.2207 C.2     1  UNL1        0.2688
      8 O         139.9028  139.5679  167.0505 O.2     1  UNL1       -0.2681
      9 N         142.4535  139.1481  166.7902 N.am    1  UNL1       -0.2580
     10 H         143.2171  138.8490  166.2456 H       1  UNL1        0.1572
     11 C         142.6772  139.6396  168.1896 C.ar    1  UNL1        0.1884
     12 N         142.9448  138.7841  169.3924 N.ar    1  UNL1       -0.1252
     13 N         143.1056  139.6887  170.5781 N.ar    1  UNL1       -0.1374
     14 C         142.9374  141.1033  170.1080 C.ar    1  UNL1        0.1605
     15 S         142.6727  141.0729  168.6319 S.2     1  UNL1       -0.0283
     16 C         142.6713  137.6203  160.0634 C.3     1  UNL1        0.1139
     17 N         142.8516  138.2330  161.4207 N.pl3   1  UNL1       -0.2872
     18 C         144.1481  138.8976  161.7774 C.3     1  UNL1        0.1205
     19 C         144.1460  140.2720  162.3783 C.ar    1  UNL1        0.0168
     20 C         143.3215  141.3606  161.7579 C.ar    1  UNL1        0.0004
     21 C         143.3194  142.7349  162.3588 C.ar    1  UNL1        0.0228
     22 C         144.1419  143.0206  163.5802 C.ar    1  UNL1        0.1526
     23 N         144.9665  141.9320  164.2007 N.ar    1  UNL1       -0.2401
     24 C         144.9685  140.5577  163.5998 C.ar    1  UNL1        0.0961
     25 C         144.1398  144.3950  164.1812 C.3     1  UNL1        0.4348
     26 F         144.1377  145.7694  164.7821 F       1  UNL1       -0.1644
     27 F         144.7915  143.8546  165.4194 F       1  UNL1       -0.1644
     28 F         143.4882  144.9354  162.9430 F       1  UNL1       -0.1644
@<TRIPOS>BOND
     1    16    17    1
     2    17    18    1
     3    18    19    1
     4    19    20   ar
     5    20    21   ar
     6    21    22   ar
     7    22    25    1
     8    25    26    1
     9    25    27    1
    10    25    28    1
    11    22    23   ar
    12    23    24   ar
    13    17     1    1
    14     1     2   ar
    15     2     3   ar
    16     3     7    1
    17     7     8    2
    18     7     9   am
    19     9    11    1
    20    11    12   ar
    21    12    13   ar
    22    13    14   ar
    23    14    15   ar
    24     3     4   ar
    25     4     5   ar
    26     5     6   ar
    27    24    19   ar
    28     6     1   ar
    29    15    11   ar
    30     9    10    1
@<TRIPOS>MOLECULE
*****
 28 30 0 0 0
SMALL
GASTEIGER

@<TRIPOS>ATOM
      1 C         143.9323  141.7479  161.8384 C.ar    1  UNL1        0.1354
      2 C         142.8709  141.0880  162.6679 C.ar    1  UNL1        0.0581
      3 C         143.2179  140.5088  164.0073 C.ar    1  UNL1        0.1393
      4 N         144.6261  140.5896  164.5174 N.ar    1  UNL1       -0.2192
      5 C         145.6876  141.2495  163.6879 C.ar    1  UNL1        0.2002
      6 N         145.3406  141.8287  162.3484 N.ar    1  UNL1       -0.2090
      7 C         142.1564  139.8489  164.8368 C.2     1  UNL1        0.2688
      8 O         142.3138  138.4172  165.2555 O.2     1  UNL1       -0.2681
      9 N         140.9376  140.6208  165.2476 N.am    1  UNL1       -0.2580
     10 H         140.8343  141.5605  164.9728 H       1  UNL1        0.1572
     11 C         139.8762  139.9610  166.0770 C.ar    1  UNL1        0.1884
     12 N         139.7586  140.0239  167.5710 N.ar    1  UNL1       -0.1252
     13 N         138.5557  139.2242  167.9754 N.ar    1  UNL1       -0.1374
     14 C         137.9300  138.6669  166.7312 C.ar    1  UNL1        0.1605
     15 S         138.7461  139.1223  165.5580 S.2     1  UNL1       -0.0283
     16 C         144.0689  141.6600  159.2454 C.3     1  UNL1        0.1139
     17 N         143.5853  142.3271  160.4989 N.pl3   1  UNL1       -0.2872
     18 C         142.7549  143.5732  160.4129 C.3     1  UNL1        0.1205
     19 C         141.6261  143.7903  161.3766 C.ar    1  UNL1        0.0168
     20 C         141.8260  144.6598  162.5824 C.ar    1  UNL1        0.0004
     21 C         140.6972  144.8768  163.5460 C.ar    1  UNL1        0.0228
     22 C         139.3684  144.2243  163.3039 C.ar    1  UNL1        0.1526
     23 N         139.1685  143.3548  162.0981 N.ar    1  UNL1       -0.2401
     24 C         140.2973  143.1378  161.1345 C.ar    1  UNL1        0.0961
     25 C         138.2395  144.4413  164.2676 C.3     1  UNL1        0.4348
     26 F         137.1107  144.6584  165.2312 F       1  UNL1       -0.1644
     27 F         139.1639  145.1892  165.1820 F       1  UNL1       -0.1644
     28 F         137.3152  143.6935  163.3532 F       1  UNL1       -0.1644
@<TRIPOS>BOND
     1    16    17    1
     2    17    18    1
     3    18    19    1
     4    19    20   ar
     5    20    21   ar
     6    21    22   ar
     7    22    25    1
     8    25    26    1
     9    25    27    1
    10    25    28    1
    11    22    23   ar
    12    23    24   ar
    13    17     1    1
    14     1     2   ar
    15     2     3   ar
    16     3     7    1
    17     7     8    2
    18     7     9   am
    19     9    11    1
    20    11    12   ar
    21    12    13   ar
    22    13    14   ar
    23    14    15   ar
    24     3     4   ar
    25     4     5   ar
    26     5     6   ar
    27    24    19   ar
    28     6     1   ar
    29    15    11   ar
    30     9    10    1
@<TRIPOS>MOLECULE
*****
 28 30 0 0 0
SMALL
GASTEIGER

@<TRIPOS>ATOM
      1 C         141.2220  144.1410  163.2830 C.ar    1  UNL1        0.1354
      2 C         142.0238  143.6581  162.1108 C.ar    1  UNL1        0.0581
      3 C         141.8460  144.2980  160.7658 C.ar    1  UNL1        0.1393
      4 N         140.8666  145.4209  160.5931 N.ar    1  UNL1       -0.2192
      5 C         140.0648  145.9038  161.7652 C.ar    1  UNL1        0.2002
      6 N         140.2426  145.2639  163.1102 N.ar    1  UNL1       -0.2090
      7 C         142.6478  143.8151  159.5937 C.2     1  UNL1        0.2688
      8 O         142.6091  144.5682  158.2971 O.2     1  UNL1       -0.2681
      9 N         143.4883  142.5789  159.7181 N.am    1  UNL1       -0.2580
     10 H         143.5137  142.0846  160.5692 H       1  UNL1        0.1572
     11 C         144.2901  142.0959  158.5460 C.ar    1  UNL1        0.1884
     12 N         145.6122  142.6435  158.0964 N.ar    1  UNL1       -0.1252
     13 N         146.0498  141.8666  156.8902 N.ar    1  UNL1       -0.1374
     14 C         144.9980  140.8388  156.5944 C.ar    1  UNL1        0.1605
     15 S         143.9105  140.9805  157.6177 S.2     1  UNL1       -0.0283
     16 C         142.7515  143.0068  165.0506 C.3     1  UNL1        0.1139
     17 N         141.3997  143.5011  164.6279 N.pl3   1  UNL1       -0.2872
     18 C         140.2258  143.3554  165.5502 C.3     1  UNL1        0.1205
     19 C         139.6481  141.9976  165.8202 C.ar    1  UNL1        0.0168
     20 C         140.0267  141.2561  167.0679 C.ar    1  UNL1        0.0004
     21 C         139.4490  139.8984  167.3378 C.ar    1  UNL1        0.0228
     22 C         138.4928  139.2822  166.3601 C.ar    1  UNL1        0.1526
     23 N         138.1142  140.0237  165.1124 N.ar    1  UNL1       -0.2401
     24 C         138.6919  141.3814  164.8424 C.ar    1  UNL1        0.0961
     25 C         137.9151  137.9244  166.6301 C.3     1  UNL1        0.4348
     26 F         137.3374  136.5667  166.9001 F       1  UNL1       -0.1644
     27 F         137.1298  138.4867  167.7777 F       1  UNL1       -0.1644
     28 F         138.7004  137.3622  165.4825 F       1  UNL1       -0.1644
@<TRIPOS>BOND
     1    16    17    1
     2    17    18    1
     3    18    19    1
     4    19    20   ar
     5    20    21   ar
     6    21    22   ar
     7    22    25    1
     8    25    26    1
     9    25    27    1
    10    25    28    1
    11    22    23   ar
    12    23    24   ar
    13    17     1    1
    14     1     2   ar
    15     2     3   ar
    16     3     7    1
    17     7     8    2
    18     7     9   am
    19     9    11    1
    20    11    12   ar
    21    12    13   ar
    22    13    14   ar
    23    14    15   ar
    24     3     4   ar
    25     4     5   ar
    26     5     6   ar
    27    24    19   ar
    28     6     1   ar
    29    15    11   ar
    30     9    10    1
