@<TRIPOS>MOLECULE
*****
 34 37 0 0 0
SMALL
GASTEIGER

@<TRIPOS>ATOM
      1 C         137.8618  140.5549  161.6948 C.3     1  UNL1        0.2722
      2 C         138.5265  141.4679  160.7074 C.2     1  UNL1        0.2701
      3 O         138.0600  141.4986  159.2822 O.2     1  UNL1       -0.2707
      4 N         139.6578  142.3502  161.1455 N.am    1  UNL1       -0.2663
      5 H         139.9640  142.3301  162.0809 H       1  UNL1        0.1564
      6 C         140.3224  143.2632  160.1582 C.ar    1  UNL1        0.1343
      7 C         141.6336  142.8744  159.5419 C.ar    1  UNL1        0.0354
      8 C         142.2983  143.7873  158.5547 C.ar    1  UNL1        0.0158
      9 C         141.6518  145.0891  158.1837 C.ar    1  UNL1        0.0769
     10 CL        142.3165  146.0021  157.1965 Cl      1  UNL1       -0.0806
     11 C         140.3407  145.4779  158.8000 C.ar    1  UNL1        0.1116
     12 N         139.6760  144.5649  159.7873 N.ar    1  UNL1       -0.2281
     13 C         137.7863  139.0820  161.4214 C.3     1  UNL1        0.1950
     14 O         138.4578  138.1119  162.3476 O.3     1  UNL1       -0.3519
     15 C         140.6748  137.3317  163.4550 C.3     1  UNL1        0.0320
     16 C         139.9444  137.9217  162.2851 C.3     1  UNL1        0.1156
     17 C         140.7006  138.3214  161.0529 C.3     1  UNL1        0.0320
     18 O         137.2727  141.1149  162.9554 O.3     1  UNL1       -0.4517
     19 C         138.1706  141.6749  164.0187 C.ar    1  UNL1        0.2312
     20 N         138.6447  143.0951  163.9285 N.ar    1  UNL1       -0.1892
     21 C         139.5425  143.6549  164.9917 C.ar    1  UNL1        0.2029
     22 N         139.9662  142.7946  166.1451 N.ar    1  UNL1       -0.2045
     23 C         139.4921  141.3744  166.2353 C.ar    1  UNL1        0.1732
     24 C         138.5943  140.8145  165.1721 C.ar    1  UNL1        0.1099
     25 C         138.2891  139.3892  165.5263 C.ar    1  UNL1        0.1283
     26 N         138.9983  139.0683  166.8085 N.ar    1  UNL1       -0.1606
     27 N         139.7418  140.2952  167.2466 N.ar    1  UNL1       -0.1936
     28 C         140.5867  140.4208  168.4796 C.ar    1  UNL1        0.1759
     29 N         142.0762  140.5494  168.3583 N.ar    1  UNL1       -0.2242
     30 C         142.9211  140.6750  169.5913 C.ar    1  UNL1        0.1006
     31 C         142.2765  140.6720  170.9458 C.ar    1  UNL1        0.0217
     32 C         140.7870  140.5434  171.0671 C.ar    1  UNL1        0.0161
     33 C         139.9421  140.4178  169.8340 C.ar    1  UNL1        0.0935
     34 CL        138.4525  140.2892  169.9554 Cl      1  UNL1       -0.0790
@<TRIPOS>BOND
     1    15    16    1
     2    16    17    1
     3    16    14    1
     4    14    13    1
     5     1    13    1
     6     1    18    1
     7    18    19    1
     8    19    20   ar
     9    20    21   ar
    10    21    22   ar
    11    22    23   ar
    12    23    24   ar
    13    24    25   ar
    14    25    26   ar
    15    26    27   ar
    16    27    28    1
    17    28    29   ar
    18    29    30   ar
    19    30    31   ar
    20    31    32   ar
    21    32    33   ar
    22    33    34    1
    23     1     2    1
    24     2     3    2
    25     2     4   am
    26     4     6    1
    27     6     7   ar
    28     7     8   ar
    29     8     9   ar
    30     9    10    1
    31     9    11   ar
    32    11    12   ar
    33    24    19   ar
    34    33    28   ar
    35    12     6   ar
    36    27    23   ar
    37     4     5    1
@<TRIPOS>MOLECULE
*****
 34 37 0 0 0
SMALL
GASTEIGER

@<TRIPOS>ATOM
      1 C         137.7850  140.8035  161.3646 C.3     1  UNL1        0.2722
      2 C         138.6293  141.4384  160.2996 C.2     1  UNL1        0.2701
      3 O         139.5050  140.5864  159.4295 O.2     1  UNL1       -0.2707
      4 N         138.5979  142.9254  160.1048 N.am    1  UNL1       -0.2663
      5 H         138.0231  143.4846  160.6759 H       1  UNL1        0.1564
      6 C         139.4421  143.5603  159.0399 C.ar    1  UNL1        0.1343
      7 C         140.7015  144.2844  159.4136 C.ar    1  UNL1        0.0354
      8 C         141.5457  144.9194  158.3487 C.ar    1  UNL1        0.0158
      9 C         141.1307  144.8302  156.9100 C.ar    1  UNL1        0.0769
     10 CL        141.9749  145.4651  155.8451 Cl      1  UNL1       -0.0806
     11 C         139.8713  144.1060  156.5363 C.ar    1  UNL1        0.1116
     12 N         139.0270  143.4711  157.6013 N.ar    1  UNL1       -0.2281
     13 C         137.5494  139.3222  161.3511 C.3     1  UNL1        0.1950
     14 O         138.0393  138.4745  162.4876 O.3     1  UNL1       -0.3519
     15 C         140.0604  137.5029  163.7995 C.3     1  UNL1        0.0320
     16 C         139.4679  138.0185  162.5215 C.3     1  UNL1        0.1156
     17 C         140.3040  138.0780  161.2776 C.3     1  UNL1        0.0320
     18 O         137.1762  141.6500  162.4430 O.3     1  UNL1       -0.4517
     19 C         138.0564  142.4676  163.3413 C.ar    1  UNL1        0.2312
     20 N         138.3561  143.8969  162.9991 N.ar    1  UNL1       -0.1892
     21 C         139.2362  144.7144  163.8975 C.ar    1  UNL1        0.2029
     22 N         139.8167  144.1026  165.1379 N.ar    1  UNL1       -0.2045
     23 C         139.5170  142.6732  165.4800 C.ar    1  UNL1        0.1732
     24 C         138.6368  141.8557  164.5817 C.ar    1  UNL1        0.1099
     25 C         138.5190  140.4822  165.1731 C.ar    1  UNL1        0.1283
     26 N         139.3263  140.4509  166.4369 N.ar    1  UNL1       -0.1606
     27 N         139.9431  141.8050  166.6266 N.ar    1  UNL1       -0.1936
     28 C         140.8303  142.2184  167.7633 C.ar    1  UNL1        0.1759
     29 N         140.2738  143.0385  168.8892 N.ar    1  UNL1       -0.2242
     30 C         141.1609  143.4518  170.0259 C.ar    1  UNL1        0.1006
     31 C         142.6047  143.0451  170.0367 C.ar    1  UNL1        0.0217
     32 C         143.1612  142.2250  168.9108 C.ar    1  UNL1        0.0161
     33 C         142.2740  141.8116  167.7741 C.ar    1  UNL1        0.0935
     34 CL        142.8306  140.9915  166.6482 Cl      1  UNL1       -0.0790
@<TRIPOS>BOND
     1    15    16    1
     2    16    17    1
     3    16    14    1
     4    14    13    1
     5     1    13    1
     6     1    18    1
     7    18    19    1
     8    19    20   ar
     9    20    21   ar
    10    21    22   ar
    11    22    23   ar
    12    23    24   ar
    13    24    25   ar
    14    25    26   ar
    15    26    27   ar
    16    27    28    1
    17    28    29   ar
    18    29    30   ar
    19    30    31   ar
    20    31    32   ar
    21    32    33   ar
    22    33    34    1
    23     1     2    1
    24     2     3    2
    25     2     4   am
    26     4     6    1
    27     6     7   ar
    28     7     8   ar
    29     8     9   ar
    30     9    10    1
    31     9    11   ar
    32    11    12   ar
    33    24    19   ar
    34    33    28   ar
    35    12     6   ar
    36    27    23   ar
    37     4     5    1
@<TRIPOS>MOLECULE
*****
 34 37 0 0 0
SMALL
GASTEIGER

@<TRIPOS>ATOM
      1 C         141.5609  144.1239  161.6076 C.3     1  UNL1        0.2722
      2 C         141.2878  144.2737  160.1402 C.2     1  UNL1        0.2701
      3 O         140.6664  143.1440  159.3738 O.2     1  UNL1       -0.2707
      4 N         141.6360  145.5534  159.4394 N.am    1  UNL1       -0.2663
      5 H         142.0439  146.2949  159.9425 H       1  UNL1        0.1564
      6 C         141.3629  145.7034  157.9722 C.ar    1  UNL1        0.1343
      7 C         142.3399  145.1662  156.9687 C.ar    1  UNL1        0.0354
      8 C         142.0668  145.3162  155.5015 C.ar    1  UNL1        0.0158
      9 C         140.8167  146.0032  155.0376 C.ar    1  UNL1        0.0769
     10 CL        140.5436  146.1532  153.5704 Cl      1  UNL1       -0.0806
     11 C         139.8397  146.5404  156.0411 C.ar    1  UNL1        0.1116
     12 N         140.1128  146.3904  157.5084 N.ar    1  UNL1       -0.2281
     13 C         141.0926  145.1757  162.5689 C.3     1  UNL1        0.1950
     14 O         139.6308  145.4934  162.6796 O.3     1  UNL1       -0.3519
     15 C         137.7258  143.7630  163.0356 C.3     1  UNL1        0.0320
     16 C         138.7573  144.6941  163.6005 C.3     1  UNL1        0.1156
     17 C         138.9152  144.8259  165.0863 C.3     1  UNL1        0.0320
     18 O         142.3024  142.9221  162.1135 O.3     1  UNL1       -0.4517
     19 C         142.7344  142.8566  163.5485 C.ar    1  UNL1        0.2312
     20 N         144.0482  143.4493  163.9640 N.ar    1  UNL1       -0.1892
     21 C         144.4801  143.3838  165.3989 C.ar    1  UNL1        0.2029
     22 N         143.5984  142.7256  166.4183 N.ar    1  UNL1       -0.2045
     23 C         142.2846  142.1329  166.0028 C.ar    1  UNL1        0.1732
     24 C         141.8526  142.1984  164.5679 C.ar    1  UNL1        0.1099
     25 C         140.5135  141.5317  164.4560 C.ar    1  UNL1        0.1283
     26 N         140.1180  141.0542  165.8219 N.ar    1  UNL1       -0.1606
     27 N         141.2125  141.4258  166.7778 N.ar    1  UNL1       -0.1936
     28 C         141.2317  141.1403  168.2503 C.ar    1  UNL1        0.1759
     29 N         141.7274  139.8162  168.7512 N.ar    1  UNL1       -0.2242
     30 C         141.7466  139.5307  170.2237 C.ar    1  UNL1        0.1006
     31 C         141.2700  140.5694  171.1953 C.ar    1  UNL1        0.0217
     32 C         140.7743  141.8935  170.6943 C.ar    1  UNL1        0.0161
     33 C         140.7551  142.1790  169.2219 C.ar    1  UNL1        0.0935
     34 CL        140.2594  143.5031  168.7210 Cl      1  UNL1       -0.0790
@<TRIPOS>BOND
     1    15    16    1
     2    16    17    1
     3    16    14    1
     4    14    13    1
     5     1    13    1
     6     1    18    1
     7    18    19    1
     8    19    20   ar
     9    20    21   ar
    10    21    22   ar
    11    22    23   ar
    12    23    24   ar
    13    24    25   ar
    14    25    26   ar
    15    26    27   ar
    16    27    28    1
    17    28    29   ar
    18    29    30   ar
    19    30    31   ar
    20    31    32   ar
    21    32    33   ar
    22    33    34    1
    23     1     2    1
    24     2     3    2
    25     2     4   am
    26     4     6    1
    27     6     7   ar
    28     7     8   ar
    29     8     9   ar
    30     9    10    1
    31     9    11   ar
    32    11    12   ar
    33    24    19   ar
    34    33    28   ar
    35    12     6   ar
    36    27    23   ar
    37     4     5    1
@<TRIPOS>MOLECULE
*****
 34 37 0 0 0
SMALL
GASTEIGER

@<TRIPOS>ATOM
      1 C         141.6489  139.0696  158.5971 C.3     1  UNL1        0.2722
      2 C         141.6880  137.8248  157.7610 C.2     1  UNL1        0.2701
      3 O         140.4339  137.3161  157.1142 O.2     1  UNL1       -0.2707
      4 N         142.9812  137.0887  157.5718 N.am    1  UNL1       -0.2663
      5 H         143.8044  137.4226  157.9963 H       1  UNL1        0.1564
      6 C         143.0204  135.8440  156.7357 C.ar    1  UNL1        0.1343
      7 C         143.3251  134.5211  157.3738 C.ar    1  UNL1        0.0354
      8 C         143.3642  133.2764  156.5378 C.ar    1  UNL1        0.0158
      9 C         143.0986  133.3545  155.0635 C.ar    1  UNL1        0.0769
     10 CL        143.1377  132.1097  154.2274 Cl      1  UNL1       -0.0806
     11 C         142.7938  134.6773  154.4254 C.ar    1  UNL1        0.1116
     12 N         142.7547  135.9221  155.2615 N.ar    1  UNL1       -0.2281
     13 C         142.8619  139.9467  158.6935 C.3     1  UNL1        0.1950
     14 O         144.0990  139.4435  159.3763 O.3     1  UNL1       -0.3519
     15 C         144.1562  140.2668  161.8399 C.3     1  UNL1        0.0320
     16 C         144.0759  139.1459  160.8463 C.3     1  UNL1        0.1156
     17 C         143.9726  137.7273  161.3228 C.3     1  UNL1        0.0320
     18 O         140.3969  139.4371  159.3369 O.3     1  UNL1       -0.4517
     19 C         140.4851  140.1689  160.6434 C.ar    1  UNL1        0.2312
     20 N         140.5702  141.6664  160.6599 N.ar    1  UNL1       -0.1892
     21 C         140.6584  142.3981  161.9663 C.ar    1  UNL1        0.2029
     22 N         140.6615  141.6324  163.2562 N.ar    1  UNL1       -0.2045
     23 C         140.5765  140.1349  163.2396 C.ar    1  UNL1        0.1732
     24 C         140.4883  139.4032  161.9332 C.ar    1  UNL1        0.1099
     25 C         140.4160  137.9343  162.2286 C.ar    1  UNL1        0.1283
     26 N         140.4596  137.7583  163.7175 N.ar    1  UNL1       -0.1606
     27 N         140.5587  139.1183  164.3424 N.ar    1  UNL1       -0.1936
     28 C         140.6280  139.4105  165.8120 C.ar    1  UNL1        0.1759
     29 N         141.9599  139.5140  166.4942 N.ar    1  UNL1       -0.2242
     30 C         142.0292  139.8061  167.9638 C.ar    1  UNL1        0.1006
     31 C         140.7665  139.9949  168.7513 C.ar    1  UNL1        0.0217
     32 C         139.4347  139.8914  168.0692 C.ar    1  UNL1        0.0161
     33 C         139.3654  139.5992  166.5995 C.ar    1  UNL1        0.0935
     34 CL        138.0335  139.4958  165.9174 Cl      1  UNL1       -0.0790
@<TRIPOS>BOND
     1    15    16    1
     2    16    17    1
     3    16    14    1
     4    14    13    1
     5     1    13    1
     6     1    18    1
     7    18    19    1
     8    19    20   ar
     9    20    21   ar
    10    21    22   ar
    11    22    23   ar
    12    23    24   ar
    13    24    25   ar
    14    25    26   ar
    15    26    27   ar
    16    27    28    1
    17    28    29   ar
    18    29    30   ar
    19    30    31   ar
    20    31    32   ar
    21    32    33   ar
    22    33    34    1
    23     1     2    1
    24     2     3    2
    25     2     4   am
    26     4     6    1
    27     6     7   ar
    28     7     8   ar
    29     8     9   ar
    30     9    10    1
    31     9    11   ar
    32    11    12   ar
    33    24    19   ar
    34    33    28   ar
    35    12     6   ar
    36    27    23   ar
    37     4     5    1
@<TRIPOS>MOLECULE
*****
 34 37 0 0 0
SMALL
GASTEIGER

@<TRIPOS>ATOM
      1 C         139.9345  144.2075  164.0245 C.3     1  UNL1        0.2722
      2 C         140.4198  143.1047  164.9179 C.2     1  UNL1        0.2701
      3 O         140.9391  141.8300  164.3216 O.2     1  UNL1       -0.2707
      4 N         140.3859  143.2765  166.4077 N.am    1  UNL1       -0.2663
      5 H         140.0451  144.1131  166.7990 H       1  UNL1        0.1564
      6 C         140.8712  142.1737  167.3011 C.ar    1  UNL1        0.1343
      7 C         139.9487  141.0522  167.6770 C.ar    1  UNL1        0.0354
      8 C         140.4340  139.9494  168.5705 C.ar    1  UNL1        0.0158
      9 C         141.8418  139.9680  169.0880 C.ar    1  UNL1        0.0769
     10 CL        142.3271  138.8652  169.9814 Cl      1  UNL1       -0.0806
     11 C         142.7643  141.0895  168.7121 C.ar    1  UNL1        0.1116
     12 N         142.2789  142.1924  167.8186 N.ar    1  UNL1       -0.2281
     13 C         138.4650  144.4831  163.9036 C.3     1  UNL1        0.1950
     14 O         137.7145  144.0296  162.6866 O.3     1  UNL1       -0.3519
     15 C         138.4333  142.3151  160.8716 C.3     1  UNL1        0.0320
     16 C         137.8365  142.6106  162.2157 C.3     1  UNL1        0.1156
     17 C         137.3616  141.4872  163.0888 C.3     1  UNL1        0.0320
     18 O         140.9188  145.0349  163.2519 O.3     1  UNL1       -0.4517
     19 C         141.1778  144.7354  161.8051 C.ar    1  UNL1        0.2312
     20 N         140.2973  145.3308  160.7466 N.ar    1  UNL1       -0.1892
     21 C         140.5564  145.0313  159.2999 C.ar    1  UNL1        0.2029
     22 N         141.6960  144.1365  158.9115 N.ar    1  UNL1       -0.2045
     23 C         142.5764  143.5412  159.9700 C.ar    1  UNL1        0.1732
     24 C         142.3174  143.8407  161.4167 C.ar    1  UNL1        0.1099
     25 C         143.3465  143.1150  162.2318 C.ar    1  UNL1        0.1283
     26 N         144.2416  142.3671  161.2888 N.ar    1  UNL1       -0.1606
     27 N         143.7657  142.6305  159.8909 N.ar    1  UNL1       -0.1936
     28 C         144.3725  142.0799  158.6345 C.ar    1  UNL1        0.1759
     29 N         145.6309  142.6817  158.0830 N.ar    1  UNL1       -0.2242
     30 C         146.2376  142.1311  156.8266 C.ar    1  UNL1        0.1006
     31 C         145.5860  140.9786  156.1215 C.ar    1  UNL1        0.0217
     32 C         144.3276  140.3767  156.6730 C.ar    1  UNL1        0.0161
     33 C         143.7208  140.9274  157.9294 C.ar    1  UNL1        0.0935
     34 CL        142.4624  140.3255  158.4808 Cl      1  UNL1       -0.0790
@<TRIPOS>BOND
     1    15    16    1
     2    16    17    1
     3    16    14    1
     4    14    13    1
     5     1    13    1
     6     1    18    1
     7    18    19    1
     8    19    20   ar
     9    20    21   ar
    10    21    22   ar
    11    22    23   ar
    12    23    24   ar
    13    24    25   ar
    14    25    26   ar
    15    26    27   ar
    16    27    28    1
    17    28    29   ar
    18    29    30   ar
    19    30    31   ar
    20    31    32   ar
    21    32    33   ar
    22    33    34    1
    23     1     2    1
    24     2     3    2
    25     2     4   am
    26     4     6    1
    27     6     7   ar
    28     7     8   ar
    29     8     9   ar
    30     9    10    1
    31     9    11   ar
    32    11    12   ar
    33    24    19   ar
    34    33    28   ar
    35    12     6   ar
    36    27    23   ar
    37     4     5    1
@<TRIPOS>MOLECULE
*****
 34 37 0 0 0
SMALL
GASTEIGER

@<TRIPOS>ATOM
      1 C         139.1512  138.3936  161.1974 C.3     1  UNL1        0.2722
      2 C         139.9001  138.5335  159.9052 C.2     1  UNL1        0.2701
      3 O         139.1530  138.7824  158.6285 O.2     1  UNL1       -0.2707
      4 N         141.3960  138.4246  159.8897 N.am    1  UNL1       -0.2663
      5 H         141.8864  138.2612  160.7277 H       1  UNL1        0.1564
      6 C         142.1449  138.5645  158.5976 C.ar    1  UNL1        0.1343
      7 C         142.4157  137.3548  157.7529 C.ar    1  UNL1        0.0354
      8 C         143.1646  137.4947  156.4609 C.ar    1  UNL1        0.0158
      9 C         143.6427  138.8443  156.0134 C.ar    1  UNL1        0.0769
     10 CL        144.3916  138.9842  154.7213 Cl      1  UNL1       -0.0806
     11 C         143.3719  140.0539  156.8581 C.ar    1  UNL1        0.1116
     12 N         142.6230  139.9140  158.1503 N.ar    1  UNL1       -0.2281
     13 C         137.7788  138.9828  161.3364 C.3     1  UNL1        0.1950
     14 O         137.5887  140.4685  161.2552 O.3     1  UNL1       -0.3519
     15 C         137.4663  141.7570  163.5079 C.3     1  UNL1        0.0320
     16 C         138.2266  141.3632  162.2763 C.3     1  UNL1        0.1156
     17 C         139.6247  141.8641  162.0658 C.3     1  UNL1        0.0320
     18 O         139.7748  137.6645  162.3504 O.3     1  UNL1       -0.4517
     19 C         140.5423  138.4243  163.3915 C.ar    1  UNL1        0.2312
     20 N         141.9780  138.7853  163.1502 N.ar    1  UNL1       -0.1892
     21 C         142.7455  139.5451  164.1912 C.ar    1  UNL1        0.2029
     22 N         142.0772  139.9438  165.4735 N.ar    1  UNL1       -0.2045
     23 C         140.6414  139.5828  165.7148 C.ar    1  UNL1        0.1732
     24 C         139.8740  138.8231  164.6738 C.ar    1  UNL1        0.1099
     25 C         138.4814  138.6090  165.1887 C.ar    1  UNL1        0.1283
     26 N         138.3883  139.2365  166.5479 N.ar    1  UNL1       -0.1606
     27 N         139.7232  139.8383  166.8731 N.ar    1  UNL1       -0.1936
     28 C         140.0777  140.5677  168.1350 C.ar    1  UNL1        0.1759
     29 N         140.1404  139.8263  169.4374 N.ar    1  UNL1       -0.2242
     30 C         140.4949  140.5556  170.6993 C.ar    1  UNL1        0.1006
     31 C         140.7868  142.0264  170.6588 C.ar    1  UNL1        0.0217
     32 C         140.7241  142.7678  169.3563 C.ar    1  UNL1        0.0161
     33 C         140.3696  142.0384  168.0944 C.ar    1  UNL1        0.0935
     34 CL        140.3070  142.7799  166.7920 Cl      1  UNL1       -0.0790
@<TRIPOS>BOND
     1    15    16    1
     2    16    17    1
     3    16    14    1
     4    14    13    1
     5     1    13    1
     6     1    18    1
     7    18    19    1
     8    19    20   ar
     9    20    21   ar
    10    21    22   ar
    11    22    23   ar
    12    23    24   ar
    13    24    25   ar
    14    25    26   ar
    15    26    27   ar
    16    27    28    1
    17    28    29   ar
    18    29    30   ar
    19    30    31   ar
    20    31    32   ar
    21    32    33   ar
    22    33    34    1
    23     1     2    1
    24     2     3    2
    25     2     4   am
    26     4     6    1
    27     6     7   ar
    28     7     8   ar
    29     8     9   ar
    30     9    10    1
    31     9    11   ar
    32    11    12   ar
    33    24    19   ar
    34    33    28   ar
    35    12     6   ar
    36    27    23   ar
    37     4     5    1
@<TRIPOS>MOLECULE
*****
 34 37 0 0 0
SMALL
GASTEIGER

@<TRIPOS>ATOM
      1 C         143.1465  141.9361  160.7043 C.3     1  UNL1        0.2722
      2 C         142.4652  142.6203  159.5562 C.2     1  UNL1        0.2701
      3 O         141.5862  141.8340  158.6293 O.2     1  UNL1       -0.2707
      4 N         142.6630  144.0906  159.3352 N.am    1  UNL1       -0.2663
      5 H         143.2399  144.6067  159.9435 H       1  UNL1        0.1564
      6 C         141.9818  144.7748  158.1872 C.ar    1  UNL1        0.1343
      7 C         142.5079  144.6036  156.7930 C.ar    1  UNL1        0.0354
      8 C         141.8267  145.2878  155.6450 C.ar    1  UNL1        0.0158
      9 C         140.6193  146.1432  155.8913 C.ar    1  UNL1        0.0769
     10 CL        139.9381  146.8273  154.7433 Cl      1  UNL1       -0.0806
     11 C         140.0931  146.3144  157.2855 C.ar    1  UNL1        0.1116
     12 N         140.7744  145.6301  158.4335 N.ar    1  UNL1       -0.2281
     13 C         144.3923  142.5255  161.2962 C.3     1  UNL1        0.1950
     14 O         144.3558  143.8926  161.9124 O.3     1  UNL1       -0.3519
     15 C         144.5901  143.1755  164.3986 C.3     1  UNL1        0.0320
     16 C         143.9716  144.0557  163.3533 C.3     1  UNL1        0.1156
     17 C         142.9690  145.0989  163.7487 C.3     1  UNL1        0.0320
     18 O         142.5818  140.6626  161.2603 O.3     1  UNL1       -0.4517
     19 C         142.6458  140.3947  162.7349 C.ar    1  UNL1        0.2312
     20 N         143.6933  139.4726  163.2848 N.ar    1  UNL1       -0.1892
     21 C         143.7573  139.2047  164.7593 C.ar    1  UNL1        0.2029
     22 N         142.7738  139.8589  165.6838 N.ar    1  UNL1       -0.2045
     23 C         141.7263  140.7810  165.1339 C.ar    1  UNL1        0.1732
     24 C         141.6623  141.0489  163.6594 C.ar    1  UNL1        0.1099
     25 C         140.5273  141.9973  163.4094 C.ar    1  UNL1        0.1283
     26 N         139.8899  142.3155  164.7293 N.ar    1  UNL1       -0.1606
     27 N         140.6309  141.5638  165.7951 N.ar    1  UNL1       -0.1936
     28 C         140.3295  141.5903  167.2643 C.ar    1  UNL1        0.1759
     29 N         140.7582  142.7619  168.0970 N.ar    1  UNL1       -0.2242
     30 C         140.4567  142.7884  169.5661 C.ar    1  UNL1        0.1006
     31 C         139.7265  141.6431  170.2027 C.ar    1  UNL1        0.0217
     32 C         139.2977  140.4715  169.3700 C.ar    1  UNL1        0.0161
     33 C         139.5992  140.4450  167.9008 C.ar    1  UNL1        0.0935
     34 CL        139.1704  139.2733  167.0682 Cl      1  UNL1       -0.0790
@<TRIPOS>BOND
     1    15    16    1
     2    16    17    1
     3    16    14    1
     4    14    13    1
     5     1    13    1
     6     1    18    1
     7    18    19    1
     8    19    20   ar
     9    20    21   ar
    10    21    22   ar
    11    22    23   ar
    12    23    24   ar
    13    24    25   ar
    14    25    26   ar
    15    26    27   ar
    16    27    28    1
    17    28    29   ar
    18    29    30   ar
    19    30    31   ar
    20    31    32   ar
    21    32    33   ar
    22    33    34    1
    23     1     2    1
    24     2     3    2
    25     2     4   am
    26     4     6    1
    27     6     7   ar
    28     7     8   ar
    29     8     9   ar
    30     9    10    1
    31     9    11   ar
    32    11    12   ar
    33    24    19   ar
    34    33    28   ar
    35    12     6   ar
    36    27    23   ar
    37     4     5    1
@<TRIPOS>MOLECULE
*****
 34 37 0 0 0
SMALL
GASTEIGER

@<TRIPOS>ATOM
      1 C         141.6834  138.3449  160.7968 C.3     1  UNL1        0.2722
      2 C         141.1021  139.7264  160.8568 C.2     1  UNL1        0.2701
      3 O         139.6685  139.9540  160.4790 O.2     1  UNL1       -0.2707
      4 N         141.9546  140.8804  161.2947 N.am    1  UNL1       -0.2663
      5 H         142.8956  140.7311  161.5427 H       1  UNL1        0.1564
      6 C         141.3734  142.2619  161.3548 C.ar    1  UNL1        0.1343
      7 C         141.1171  142.9107  162.6827 C.ar    1  UNL1        0.0354
      8 C         140.5359  144.2922  162.7427 C.ar    1  UNL1        0.0158
      9 C         140.2109  145.0249  161.4748 C.ar    1  UNL1        0.0769
     10 CL        139.6297  146.4064  161.5349 Cl      1  UNL1       -0.0806
     11 C         140.4671  144.3761  160.1469 C.ar    1  UNL1        0.1116
     12 N         141.0484  142.9945  160.0869 N.ar    1  UNL1       -0.2281
     13 C         142.5935  137.9626  159.6674 C.3     1  UNL1        0.1950
     14 O         143.6584  138.9135  159.2075 O.3     1  UNL1       -0.3519
     15 C         142.1249  139.6889  157.2588 C.3     1  UNL1        0.0320
     16 C         143.4300  139.7657  157.9943 C.3     1  UNL1        0.1156
     17 C         144.5065  140.6946  157.5167 C.3     1  UNL1        0.0320
     18 O         141.3547  137.3458  161.8662 O.3     1  UNL1       -0.4517
     19 C         140.9281  137.8152  163.2256 C.ar    1  UNL1        0.2312
     20 N         139.5043  137.6445  163.6654 N.ar    1  UNL1       -0.1892
     21 C         139.0778  138.1139  165.0247 C.ar    1  UNL1        0.2029
     22 N         140.0752  138.7539  165.9442 N.ar    1  UNL1       -0.2045
     23 C         141.4991  138.9245  165.5044 C.ar    1  UNL1        0.1732
     24 C         141.9256  138.4552  164.1451 C.ar    1  UNL1        0.1099
     25 C         143.3869  138.7553  163.9884 C.ar    1  UNL1        0.1283
     26 N         143.8636  139.4101  165.2509 N.ar    1  UNL1       -0.1606
     27 N         142.6968  139.5147  166.1879 N.ar    1  UNL1       -0.1936
     28 C         142.7232  140.1057  167.5663 C.ar    1  UNL1        0.1759
     29 N         142.7078  139.2079  168.7677 N.ar    1  UNL1       -0.2242
     30 C         142.7342  139.7989  170.1461 C.ar    1  UNL1        0.1006
     31 C         142.7759  141.2879  170.3231 C.ar    1  UNL1        0.0217
     32 C         142.7913  142.1857  169.1216 C.ar    1  UNL1        0.0161
     33 C         142.7650  141.5947  167.7432 C.ar    1  UNL1        0.0935
     34 CL        142.7803  142.4926  166.5418 Cl      1  UNL1       -0.0790
@<TRIPOS>BOND
     1    15    16    1
     2    16    17    1
     3    16    14    1
     4    14    13    1
     5     1    13    1
     6     1    18    1
     7    18    19    1
     8    19    20   ar
     9    20    21   ar
    10    21    22   ar
    11    22    23   ar
    12    23    24   ar
    13    24    25   ar
    14    25    26   ar
    15    26    27   ar
    16    27    28    1
    17    28    29   ar
    18    29    30   ar
    19    30    31   ar
    20    31    32   ar
    21    32    33   ar
    22    33    34    1
    23     1     2    1
    24     2     3    2
    25     2     4   am
    26     4     6    1
    27     6     7   ar
    28     7     8   ar
    29     8     9   ar
    30     9    10    1
    31     9    11   ar
    32    11    12   ar
    33    24    19   ar
    34    33    28   ar
    35    12     6   ar
    36    27    23   ar
    37     4     5    1
@<TRIPOS>MOLECULE
*****
 34 37 0 0 0
SMALL
GASTEIGER

@<TRIPOS>ATOM
      1 C         138.6481  138.8018  163.0775 C.3     1  UNL1        0.2722
      2 C         139.1748  138.8154  164.4820 C.2     1  UNL1        0.2701
      3 O         138.7346  137.7652  165.4583 O.2     1  UNL1       -0.2707
      4 N         140.1418  139.8792  164.9101 N.am    1  UNL1       -0.2663
      5 H         140.4308  140.5685  164.2693 H       1  UNL1        0.1564
      6 C         140.6686  139.8928  166.3144 C.ar    1  UNL1        0.1343
      7 C         142.0777  139.4594  166.5912 C.ar    1  UNL1        0.0354
      8 C         142.6044  139.4730  167.9956 C.ar    1  UNL1        0.0158
      9 C         141.7220  139.9199  169.1233 C.ar    1  UNL1        0.0769
     10 CL        142.2488  139.9335  170.5277 Cl      1  UNL1       -0.0806
     11 C         140.3129  140.3533  168.8465 C.ar    1  UNL1        0.1116
     12 N         139.7862  140.3397  167.4421 N.ar    1  UNL1       -0.2281
     13 C         139.2041  137.8321  162.0773 C.3     1  UNL1        0.1950
     14 O         140.5540  137.2170  162.2993 O.3     1  UNL1       -0.3519
     15 C         142.0261  138.3687  160.4946 C.3     1  UNL1        0.0320
     16 C         141.7938  137.9730  161.9227 C.3     1  UNL1        0.1156
     17 C         142.8010  138.3332  162.9742 C.3     1  UNL1        0.0320
     18 O         137.5653  139.7580  162.6734 O.3     1  UNL1       -0.4517
     19 C         137.9183  141.1475  162.2316 C.ar    1  UNL1        0.2312
     20 N         137.6338  142.3149  163.1294 N.ar    1  UNL1       -0.1892
     21 C         137.9867  143.7042  162.6876 C.ar    1  UNL1        0.2029
     22 N         138.6241  143.9261  161.3480 N.ar    1  UNL1       -0.2045
     23 C         138.9085  142.7587  160.4502 C.ar    1  UNL1        0.1732
     24 C         138.5556  141.3693  160.8920 C.ar    1  UNL1        0.1099
     25 C         138.9527  140.4207  159.7999 C.ar    1  UNL1        0.1283
     26 N         139.5511  141.2238  158.6833 N.ar    1  UNL1       -0.1606
     27 N         139.5237  142.6687  159.0852 N.ar    1  UNL1       -0.1936
     28 C         140.0238  143.8214  158.2658 C.ar    1  UNL1        0.1759
     29 N         139.3034  144.2184  157.0115 N.ar    1  UNL1       -0.2242
     30 C         139.8035  145.3711  156.1922 C.ar    1  UNL1        0.1006
     31 C         141.0241  146.1268  156.6272 C.ar    1  UNL1        0.0217
     32 C         141.7445  145.7297  157.8815 C.ar    1  UNL1        0.0161
     33 C         141.2444  144.5771  158.7009 C.ar    1  UNL1        0.0935
     34 CL        141.9648  144.1801  159.9552 Cl      1  UNL1       -0.0790
@<TRIPOS>BOND
     1    15    16    1
     2    16    17    1
     3    16    14    1
     4    14    13    1
     5     1    13    1
     6     1    18    1
     7    18    19    1
     8    19    20   ar
     9    20    21   ar
    10    21    22   ar
    11    22    23   ar
    12    23    24   ar
    13    24    25   ar
    14    25    26   ar
    15    26    27   ar
    16    27    28    1
    17    28    29   ar
    18    29    30   ar
    19    30    31   ar
    20    31    32   ar
    21    32    33   ar
    22    33    34    1
    23     1     2    1
    24     2     3    2
    25     2     4   am
    26     4     6    1
    27     6     7   ar
    28     7     8   ar
    29     8     9   ar
    30     9    10    1
    31     9    11   ar
    32    11    12   ar
    33    24    19   ar
    34    33    28   ar
    35    12     6   ar
    36    27    23   ar
    37     4     5    1
