@<TRIPOS>MOLECULE
*****
 30 34 0 0 0
SMALL
GASTEIGER

@<TRIPOS>ATOM
      1 C         141.2504  138.6984  162.0935 C.ar    1  UNL1        0.0681
      2 C         142.3127  137.6564  161.9043 C.ar    1  UNL1        0.0208
      3 C         142.9248  137.4464  160.5511 C.ar    1  UNL1        0.0384
      4 C         142.4745  138.2784  159.3870 C.ar    1  UNL1        0.1385
      5 C         141.4122  139.3203  159.5762 C.ar    1  UNL1        0.0384
      6 C         140.8001  139.5303  160.9294 C.ar    1  UNL1        0.0208
      7 C         138.4789  137.6981  162.6577 C.3     1  UNL1        0.0723
      8 C         139.2525  138.4082  163.7289 C.ar    1  UNL1        0.1268
      9 N         138.6404  138.6181  165.0821 N.ar    1  UNL1       -0.2318
     10 C         139.4141  139.3282  166.1533 C.ar    1  UNL1        0.0880
     11 C         138.8020  139.5381  167.5065 C.ar    1  UNL1        0.0307
     12 C         139.5756  140.2481  168.5776 C.ar    1  UNL1        0.0592
     13 CL        138.9636  140.4581  169.9309 Cl      1  UNL1       -0.0822
     14 C         140.9614  140.7483  168.2954 C.ar    1  UNL1        0.0116
     15 C         141.5735  140.5383  166.9422 C.ar    1  UNL1        0.0071
     16 C         140.7998  139.8283  165.8711 C.ar    1  UNL1        0.0742
     17 C         141.4119  139.6183  164.5178 C.ar    1  UNL1        0.2669
     18 O         142.7977  140.1185  164.2357 O.2     1  UNL1       -0.2665
     19 N         140.6383  138.9083  163.4468 N.ar    1  UNL1       -0.2626
     20 O         143.0866  138.0684  158.0337 O.3     1  UNL1       -0.4791
     21 C         142.6646  136.9002  157.1928 C.3     1  UNL1        0.1687
     22 C         143.3473  135.5744  157.3542 C.3     1  UNL1        0.0609
     23 C         142.9253  134.4062  156.5133 C.3     1  UNL1        0.0758
     24 N         141.8205  134.5639  155.5109 N.3     1  UNL1       -0.2737
     25 C         141.1378  135.8897  155.3495 C.3     1  UNL1        0.0758
     26 C         141.5598  137.0579  156.1905 C.3     1  UNL1        0.0609
     27 C         141.3984  133.3957  154.6699 C.3     1  UNL1        0.0575
     28 C         141.0693  131.9575  154.9410 C.3     1  UNL1        0.0160
     29 C         140.8016  131.7436  153.4807 C.3     1  UNL1        0.0028
     30 C         141.1306  133.1817  153.2097 C.3     1  UNL1        0.0160
@<TRIPOS>BOND
     1     7     8    1
     2     8     9   ar
     3     9    10   ar
     4    10    11   ar
     5    11    12   ar
     6    12    13    1
     7    12    14   ar
     8    14    15   ar
     9    15    16   ar
    10    16    17   ar
    11    17    18    2
    12    17    19   ar
    13    19     1    1
    14     1     2   ar
    15     2     3   ar
    16     3     4   ar
    17     4    20    1
    18    20    21    1
    19    21    22    1
    20    22    23    1
    21    23    24    1
    22    24    27    1
    23    27    28    1
    24    28    29    1
    25    29    30    1
    26    24    25    1
    27    25    26    1
    28     4     5   ar
    29     5     6   ar
    30    19     8   ar
    31     6     1   ar
    32    16    10   ar
    33    26    21    1
    34    30    27    1
@<TRIPOS>MOLECULE
*****
 30 34 0 0 0
SMALL
GASTEIGER

@<TRIPOS>ATOM
      1 C         141.8388  138.8577  161.5905 C.ar    1  UNL1        0.0681
      2 C         142.7417  137.6875  161.3351 C.ar    1  UNL1        0.0208
      3 C         143.0961  137.3066  159.9282 C.ar    1  UNL1        0.0384
      4 C         142.5476  138.0961  158.7767 C.ar    1  UNL1        0.1385
      5 C         141.6448  139.2664  159.0321 C.ar    1  UNL1        0.0384
      6 C         141.2903  139.6472  160.4390 C.ar    1  UNL1        0.0208
      7 C         143.6013  140.7394  163.1244 C.3     1  UNL1        0.0723
      8 C         142.3656  140.1794  163.7644 C.ar    1  UNL1        0.1268
      9 N         142.0113  140.5602  165.1713 N.ar    1  UNL1       -0.2318
     10 C         140.7756  140.0002  165.8113 C.ar    1  UNL1        0.0880
     11 C         140.4212  140.3810  167.2181 C.ar    1  UNL1        0.0307
     12 C         139.1856  139.8210  167.8581 C.ar    1  UNL1        0.0592
     13 CL        138.8311  140.2018  169.2650 Cl      1  UNL1       -0.0822
     14 C         138.3043  138.8802  167.0911 C.ar    1  UNL1        0.0116
     15 C         138.6587  138.4993  165.6842 C.ar    1  UNL1        0.0071
     16 C         139.8943  139.0593  165.0443 C.ar    1  UNL1        0.0742
     17 C         140.2487  138.6785  163.6373 C.ar    1  UNL1        0.2669
     18 O         139.3674  137.7377  162.8704 O.2     1  UNL1       -0.2665
     19 N         141.4844  139.2385  162.9974 N.ar    1  UNL1       -0.2626
     20 O         142.9021  137.7153  157.3698 O.3     1  UNL1       -0.4791
     21 C         142.5976  136.3353  156.8670 C.3     1  UNL1        0.1687
     22 C         141.5406  136.1340  155.8219 C.3     1  UNL1        0.0609
     23 C         141.2361  134.7540  155.3191 C.3     1  UNL1        0.0758
     24 N         141.9887  133.5752  155.8615 N.3     1  UNL1       -0.2737
     25 C         143.0457  133.7764  156.9066 C.3     1  UNL1        0.0758
     26 C         143.3502  135.1565  157.4093 C.3     1  UNL1        0.0609
     27 C         141.6843  132.1951  155.3587 C.3     1  UNL1        0.0575
     28 C         140.7189  131.6164  154.3671 C.3     1  UNL1        0.0160
     29 C         141.2537  130.2434  154.6477 C.3     1  UNL1        0.0028
     30 C         142.2191  130.8220  155.6392 C.3     1  UNL1        0.0160
@<TRIPOS>BOND
     1     7     8    1
     2     8     9   ar
     3     9    10   ar
     4    10    11   ar
     5    11    12   ar
     6    12    13    1
     7    12    14   ar
     8    14    15   ar
     9    15    16   ar
    10    16    17   ar
    11    17    18    2
    12    17    19   ar
    13    19     1    1
    14     1     2   ar
    15     2     3   ar
    16     3     4   ar
    17     4    20    1
    18    20    21    1
    19    21    22    1
    20    22    23    1
    21    23    24    1
    22    24    27    1
    23    27    28    1
    24    28    29    1
    25    29    30    1
    26    24    25    1
    27    25    26    1
    28     4     5   ar
    29     5     6   ar
    30    19     8   ar
    31     6     1   ar
    32    16    10   ar
    33    26    21    1
    34    30    27    1
@<TRIPOS>MOLECULE
*****
 30 34 0 0 0
SMALL
GASTEIGER

@<TRIPOS>ATOM
      1 C         139.4409  141.2515  161.6361 C.ar    1  UNL1        0.0681
      2 C         138.3206  142.0398  161.0248 C.ar    1  UNL1        0.0208
      3 C         138.3781  142.4256  159.5765 C.ar    1  UNL1        0.0384
      4 C         139.5559  142.0231  158.7394 C.ar    1  UNL1        0.1385
      5 C         140.6762  141.2348  159.3506 C.ar    1  UNL1        0.0384
      6 C         140.6186  140.8490  160.7990 C.ar    1  UNL1        0.0208
      7 C         138.1740  138.6561  162.4478 C.3     1  UNL1        0.0723
      8 C         138.7498  139.5680  163.4904 C.ar    1  UNL1        0.1268
      9 N         138.6923  139.1822  164.9388 N.ar    1  UNL1       -0.2318
     10 C         139.2681  140.0941  165.9813 C.ar    1  UNL1        0.0880
     11 C         139.2105  139.7082  167.4297 C.ar    1  UNL1        0.0307
     12 C         139.7864  140.6201  168.4722 C.ar    1  UNL1        0.0592
     13 CL        139.7288  140.2343  169.9206 Cl      1  UNL1       -0.0822
     14 C         140.4198  141.9178  168.0663 C.ar    1  UNL1        0.0116
     15 C         140.4774  142.3036  166.6180 C.ar    1  UNL1        0.0071
     16 C         139.9016  141.3918  165.5755 C.ar    1  UNL1        0.0742
     17 C         139.9592  141.7776  164.1270 C.ar    1  UNL1        0.2669
     18 O         140.5926  143.0753  163.7212 O.2     1  UNL1       -0.2665
     19 N         139.3833  140.8657  163.0845 N.ar    1  UNL1       -0.2626
     20 O         139.6135  142.4089  157.2909 O.3     1  UNL1       -0.4791
     21 C         139.4793  143.8488  156.8924 C.3     1  UNL1        0.1687
     22 C         138.5701  144.2327  155.7628 C.3     1  UNL1        0.0609
     23 C         138.4359  145.6726  155.3643 C.3     1  UNL1        0.0758
     24 N         139.2109  146.7285  156.0954 N.3     1  UNL1       -0.2737
     25 C         140.1201  146.3445  157.2250 C.3     1  UNL1        0.0758
     26 C         140.2543  144.9047  157.6235 C.3     1  UNL1        0.0609
     27 C         139.0768  148.1683  155.6969 C.3     1  UNL1        0.0575
     28 C         138.4335  149.3809  156.3020 C.3     1  UNL1        0.0160
     29 C         138.8870  150.2046  155.1333 C.3     1  UNL1        0.0028
     30 C         139.5302  148.9922  154.5283 C.3     1  UNL1        0.0160
@<TRIPOS>BOND
     1     7     8    1
     2     8     9   ar
     3     9    10   ar
     4    10    11   ar
     5    11    12   ar
     6    12    13    1
     7    12    14   ar
     8    14    15   ar
     9    15    16   ar
    10    16    17   ar
    11    17    18    2
    12    17    19   ar
    13    19     1    1
    14     1     2   ar
    15     2     3   ar
    16     3     4   ar
    17     4    20    1
    18    20    21    1
    19    21    22    1
    20    22    23    1
    21    23    24    1
    22    24    27    1
    23    27    28    1
    24    28    29    1
    25    29    30    1
    26    24    25    1
    27    25    26    1
    28     4     5   ar
    29     5     6   ar
    30    19     8   ar
    31     6     1   ar
    32    16    10   ar
    33    26    21    1
    34    30    27    1
@<TRIPOS>MOLECULE
*****
 30 34 0 0 0
SMALL
GASTEIGER

@<TRIPOS>ATOM
      1 C         140.5609  139.3529  159.6459 C.ar    1  UNL1        0.0681
      2 C         142.0230  139.0571  159.4888 C.ar    1  UNL1        0.0208
      3 C         142.5049  138.2603  158.3129 C.ar    1  UNL1        0.0384
      4 C         141.5247  137.7593  157.2941 C.ar    1  UNL1        0.1385
      5 C         140.0626  138.0551  157.4511 C.ar    1  UNL1        0.0384
      6 C         139.5807  138.8519  158.6270 C.ar    1  UNL1        0.0208
      7 C         139.7100  137.9530  162.1591 C.3     1  UNL1        0.0723
      8 C         139.6536  139.4498  162.0785 C.ar    1  UNL1        0.1268
      9 N         139.1717  140.2466  163.2544 N.ar    1  UNL1       -0.2318
     10 C         139.1153  141.7434  163.1738 C.ar    1  UNL1        0.0880
     11 C         138.6334  142.5402  164.3497 C.ar    1  UNL1        0.0307
     12 C         138.5770  144.0369  164.2691 C.ar    1  UNL1        0.0592
     13 CL        138.0951  144.8338  165.4451 Cl      1  UNL1       -0.0822
     14 C         139.0024  144.7369  163.0125 C.ar    1  UNL1        0.0116
     15 C         139.4843  143.9401  161.8365 C.ar    1  UNL1        0.0071
     16 C         139.5407  142.4434  161.9172 C.ar    1  UNL1        0.0742
     17 C         140.0226  141.6465  160.7412 C.ar    1  UNL1        0.2669
     18 O         140.4480  142.3464  159.4846 O.2     1  UNL1       -0.2665
     19 N         140.0790  140.1498  160.8219 N.ar    1  UNL1       -0.2626
     20 O         142.0066  136.9624  156.1181 O.3     1  UNL1       -0.4791
     21 C         142.2076  135.4816  156.2472 C.3     1  UNL1        0.1687
     22 C         143.2193  134.9436  157.2155 C.3     1  UNL1        0.0609
     23 C         143.4203  133.4628  157.3446 C.3     1  UNL1        0.0758
     24 N         142.6097  132.5199  156.5056 N.3     1  UNL1       -0.2737
     25 C         141.5982  133.0578  155.5374 C.3     1  UNL1        0.0758
     26 C         141.3971  134.5386  155.4083 C.3     1  UNL1        0.0609
     27 C         142.8108  131.0390  156.6348 C.3     1  UNL1        0.0575
     28 C         143.5195  130.1458  157.6095 C.3     1  UNL1        0.0160
     29 C         143.0951  128.9448  156.8174 C.3     1  UNL1        0.0028
     30 C         142.3864  129.8379  155.8428 C.3     1  UNL1        0.0160
@<TRIPOS>BOND
     1     7     8    1
     2     8     9   ar
     3     9    10   ar
     4    10    11   ar
     5    11    12   ar
     6    12    13    1
     7    12    14   ar
     8    14    15   ar
     9    15    16   ar
    10    16    17   ar
    11    17    18    2
    12    17    19   ar
    13    19     1    1
    14     1     2   ar
    15     2     3   ar
    16     3     4   ar
    17     4    20    1
    18    20    21    1
    19    21    22    1
    20    22    23    1
    21    23    24    1
    22    24    27    1
    23    27    28    1
    24    28    29    1
    25    29    30    1
    26    24    25    1
    27    25    26    1
    28     4     5   ar
    29     5     6   ar
    30    19     8   ar
    31     6     1   ar
    32    16    10   ar
    33    26    21    1
    34    30    27    1
@<TRIPOS>MOLECULE
*****
 30 34 0 0 0
SMALL
GASTEIGER

@<TRIPOS>ATOM
      1 C         140.5805  139.8608  162.4291 C.ar    1  UNL1        0.0681
      2 C         140.3872  138.5598  161.7081 C.ar    1  UNL1        0.0208
      3 C         140.6311  138.4778  160.2304 C.ar    1  UNL1        0.0384
      4 C         141.0683  139.6968  159.4737 C.ar    1  UNL1        0.1385
      5 C         141.2616  140.9979  160.1947 C.ar    1  UNL1        0.0384
      6 C         141.0177  141.0799  161.6724 C.ar    1  UNL1        0.0208
      7 C         137.8426  140.5200  163.4632 C.3     1  UNL1        0.0723
      8 C         138.9677  140.2724  164.4240 C.ar    1  UNL1        0.1268
      9 N         138.7237  140.3543  165.9017 N.ar    1  UNL1       -0.2318
     10 C         139.8488  140.1067  166.8625 C.ar    1  UNL1        0.0880
     11 C         139.6049  140.1887  168.3402 C.ar    1  UNL1        0.0307
     12 C         140.7299  139.9411  169.3009 C.ar    1  UNL1        0.0592
     13 CL        140.4860  140.0231  170.7787 Cl      1  UNL1       -0.0822
     14 C         142.0989  139.6115  168.7839 C.ar    1  UNL1        0.0116
     15 C         142.3428  139.5296  167.3061 C.ar    1  UNL1        0.0071
     16 C         141.2178  139.7772  166.3455 C.ar    1  UNL1        0.0742
     17 C         141.4617  139.6952  164.8676 C.ar    1  UNL1        0.2669
     18 O         142.8306  139.3656  164.3506 O.2     1  UNL1       -0.2665
     19 N         140.3366  139.9428  163.9070 N.ar    1  UNL1       -0.2626
     20 O         141.3122  139.6149  157.9958 O.3     1  UNL1       -0.4791
     21 C         141.4320  138.2768  157.3286 C.3     1  UNL1        0.1687
     22 C         140.3504  137.7996  156.4052 C.3     1  UNL1        0.0609
     23 C         140.4703  136.4616  155.7379 C.3     1  UNL1        0.0758
     24 N         141.6717  135.6007  155.9941 N.3     1  UNL1       -0.2737
     25 C         142.7532  136.0779  156.9174 C.3     1  UNL1        0.0758
     26 C         142.6334  137.4160  157.5846 C.3     1  UNL1        0.0609
     27 C         141.7916  134.2626  155.3268 C.3     1  UNL1        0.0575
     28 C         142.0500  132.8620  155.7975 C.3     1  UNL1        0.0160
     29 C         141.9611  132.3704  154.3831 C.3     1  UNL1        0.0028
     30 C         141.7027  133.7709  153.9125 C.3     1  UNL1        0.0160
@<TRIPOS>BOND
     1     7     8    1
     2     8     9   ar
     3     9    10   ar
     4    10    11   ar
     5    11    12   ar
     6    12    13    1
     7    12    14   ar
     8    14    15   ar
     9    15    16   ar
    10    16    17   ar
    11    17    18    2
    12    17    19   ar
    13    19     1    1
    14     1     2   ar
    15     2     3   ar
    16     3     4   ar
    17     4    20    1
    18    20    21    1
    19    21    22    1
    20    22    23    1
    21    23    24    1
    22    24    27    1
    23    27    28    1
    24    28    29    1
    25    29    30    1
    26    24    25    1
    27    25    26    1
    28     4     5   ar
    29     5     6   ar
    30    19     8   ar
    31     6     1   ar
    32    16    10   ar
    33    26    21    1
    34    30    27    1
@<TRIPOS>MOLECULE
*****
 30 34 0 0 0
SMALL
GASTEIGER

@<TRIPOS>ATOM
      1 C         142.3299  139.2384  162.2702 C.ar    1  UNL1        0.0681
      2 C         142.1676  140.3339  161.2585 C.ar    1  UNL1        0.0208
      3 C         142.4775  140.0731  159.8143 C.ar    1  UNL1        0.0384
      4 C         142.9497  138.7167  159.3817 C.ar    1  UNL1        0.1385
      5 C         143.1120  137.6211  160.3933 C.ar    1  UNL1        0.0384
      6 C         142.8021  137.8820  161.8376 C.ar    1  UNL1        0.0208
      7 C         144.4802  140.2352  164.1093 C.3     1  UNL1        0.0723
      8 C         143.0951  139.9977  164.6341 C.ar    1  UNL1        0.1268
      9 N         142.7853  140.2586  166.0783 N.ar    1  UNL1       -0.2318
     10 C         141.4002  140.0211  166.6030 C.ar    1  UNL1        0.0880
     11 C         141.0904  140.2820  168.0473 C.ar    1  UNL1        0.0307
     12 C         139.7054  140.0445  168.5719 C.ar    1  UNL1        0.0592
     13 CL        139.3955  140.3054  170.0163 Cl      1  UNL1       -0.0822
     14 C         138.6302  139.5460  167.6524 C.ar    1  UNL1        0.0116
     15 C         138.9401  139.2852  166.2081 C.ar    1  UNL1        0.0071
     16 C         140.3251  139.5227  165.6835 C.ar    1  UNL1        0.0742
     17 C         140.6350  139.2618  164.2391 C.ar    1  UNL1        0.2669
     18 O         139.5598  138.7634  163.3196 O.2     1  UNL1       -0.2665
     19 N         142.0200  139.4993  163.7145 N.ar    1  UNL1       -0.2626
     20 O         143.2596  138.4558  157.9374 O.3     1  UNL1       -0.4791
     21 C         142.1460  138.1966  156.9663 C.3     1  UNL1        0.1687
     22 C         142.3957  138.3091  155.4915 C.3     1  UNL1        0.0609
     23 C         141.2822  138.0499  154.5205 C.3     1  UNL1        0.0758
     24 N         139.9190  137.6783  155.0243 N.3     1  UNL1       -0.2737
     25 C         139.6694  137.5659  156.4991 C.3     1  UNL1        0.0758
     26 C         140.7829  137.8250  157.4701 C.3     1  UNL1        0.0609
     27 C         138.8055  137.4191  154.0533 C.3     1  UNL1        0.0575
     28 C         137.3323  137.7008  154.0289 C.3     1  UNL1        0.0160
     29 C         137.2307  137.0526  152.6800 C.3     1  UNL1        0.0028
     30 C         138.7038  136.7709  152.7044 C.3     1  UNL1        0.0160
@<TRIPOS>BOND
     1     7     8    1
     2     8     9   ar
     3     9    10   ar
     4    10    11   ar
     5    11    12   ar
     6    12    13    1
     7    12    14   ar
     8    14    15   ar
     9    15    16   ar
    10    16    17   ar
    11    17    18    2
    12    17    19   ar
    13    19     1    1
    14     1     2   ar
    15     2     3   ar
    16     3     4   ar
    17     4    20    1
    18    20    21    1
    19    21    22    1
    20    22    23    1
    21    23    24    1
    22    24    27    1
    23    27    28    1
    24    28    29    1
    25    29    30    1
    26    24    25    1
    27    25    26    1
    28     4     5   ar
    29     5     6   ar
    30    19     8   ar
    31     6     1   ar
    32    16    10   ar
    33    26    21    1
    34    30    27    1
@<TRIPOS>MOLECULE
*****
 30 34 0 0 0
SMALL
GASTEIGER

@<TRIPOS>ATOM
      1 C         143.0715  139.8041  159.9506 C.ar    1  UNL1        0.0681
      2 C         141.6080  140.0784  160.1322 C.ar    1  UNL1        0.0208
      3 C         140.8491  139.4008  161.2344 C.ar    1  UNL1        0.0384
      4 C         141.5537  138.4489  162.1549 C.ar    1  UNL1        0.1385
      5 C         143.0172  138.1746  161.9733 C.ar    1  UNL1        0.0384
      6 C         143.7761  138.8523  160.8711 C.ar    1  UNL1        0.0208
      7 C         144.2349  142.5344  160.3889 C.3     1  UNL1        0.0723
      8 C         144.4121  141.8470  159.0675 C.ar    1  UNL1        0.1268
      9 N         145.1710  142.5246  157.9653 N.ar    1  UNL1       -0.2318
     10 C         145.3482  141.8372  156.6439 C.ar    1  UNL1        0.0880
     11 C         146.1071  142.5149  155.5417 C.ar    1  UNL1        0.0307
     12 C         146.2842  141.8274  154.2204 C.ar    1  UNL1        0.0592
     13 CL        147.0431  142.5051  153.1181 Cl      1  UNL1       -0.0822
     14 C         145.7025  140.4623  154.0012 C.ar    1  UNL1        0.0116
     15 C         144.9437  139.7846  155.1034 C.ar    1  UNL1        0.0071
     16 C         144.7665  140.4720  156.4247 C.ar    1  UNL1        0.0742
     17 C         144.0076  139.7944  157.5270 C.ar    1  UNL1        0.2669
     18 O         143.4259  138.4292  157.3078 O.2     1  UNL1       -0.2665
     19 N         143.8304  140.4818  158.8483 N.ar    1  UNL1       -0.2626
     20 O         140.7948  137.7712  163.2572 O.3     1  UNL1       -0.4791
     21 C         140.5583  138.4861  164.5545 C.3     1  UNL1        0.1687
     22 C         139.1678  138.5993  165.1058 C.3     1  UNL1        0.0609
     23 C         138.9314  139.3142  166.4032 C.3     1  UNL1        0.0758
     24 N         140.0853  139.9158  167.1492 N.3     1  UNL1       -0.2737
     25 C         141.4757  139.8026  166.5978 C.3     1  UNL1        0.0758
     26 C         141.7122  139.0877  165.3005 C.3     1  UNL1        0.0609
     27 C         139.8489  140.6307  168.4465 C.3     1  UNL1        0.0575
     28 C         139.0846  140.3269  169.7010 C.3     1  UNL1        0.0160
     29 C         139.5144  141.6417  170.2811 C.3     1  UNL1        0.0028
     30 C         140.2786  141.9454  169.0267 C.3     1  UNL1        0.0160
@<TRIPOS>BOND
     1     7     8    1
     2     8     9   ar
     3     9    10   ar
     4    10    11   ar
     5    11    12   ar
     6    12    13    1
     7    12    14   ar
     8    14    15   ar
     9    15    16   ar
    10    16    17   ar
    11    17    18    2
    12    17    19   ar
    13    19     1    1
    14     1     2   ar
    15     2     3   ar
    16     3     4   ar
    17     4    20    1
    18    20    21    1
    19    21    22    1
    20    22    23    1
    21    23    24    1
    22    24    27    1
    23    27    28    1
    24    28    29    1
    25    29    30    1
    26    24    25    1
    27    25    26    1
    28     4     5   ar
    29     5     6   ar
    30    19     8   ar
    31     6     1   ar
    32    16    10   ar
    33    26    21    1
    34    30    27    1
@<TRIPOS>MOLECULE
*****
 30 34 0 0 0
SMALL
GASTEIGER

@<TRIPOS>ATOM
      1 C         141.2024  140.0110  159.8257 C.ar    1  UNL1        0.0681
      2 C         141.9118  138.7573  160.2439 C.ar    1  UNL1        0.0208
      3 C         142.6666  137.9490  159.2306 C.ar    1  UNL1        0.0384
      4 C         142.7122  138.3945  157.7991 C.ar    1  UNL1        0.1385
      5 C         142.0028  139.6483  157.3808 C.ar    1  UNL1        0.0384
      6 C         141.2479  140.4565  158.3942 C.ar    1  UNL1        0.0208
      7 C         138.2665  139.5455  160.2303 C.3     1  UNL1        0.0723
      8 C         138.9796  140.5865  161.0414 C.ar    1  UNL1        0.1268
      9 N         138.2247  141.3947  162.0548 N.ar    1  UNL1       -0.2318
     10 C         138.9378  142.4357  162.8659 C.ar    1  UNL1        0.0880
     11 C         138.1829  143.2439  163.8792 C.ar    1  UNL1        0.0307
     12 C         138.8959  144.2849  164.6903 C.ar    1  UNL1        0.0592
     13 CL        138.1410  145.0931  165.7037 Cl      1  UNL1       -0.0822
     14 C         140.3639  144.5177  164.4880 C.ar    1  UNL1        0.0116
     15 C         141.1188  143.7095  163.4747 C.ar    1  UNL1        0.0071
     16 C         140.4057  142.6685  162.6636 C.ar    1  UNL1        0.0742
     17 C         141.1606  141.8602  161.6502 C.ar    1  UNL1        0.2669
     18 O         142.6286  142.0930  161.4479 O.2     1  UNL1       -0.2665
     19 N         140.4475  140.8193  160.8391 N.ar    1  UNL1       -0.2626
     20 O         143.4671  137.5863  156.7856 O.3     1  UNL1       -0.4791
     21 C         143.0111  136.1991  156.4423 C.3     1  UNL1        0.1687
     22 C         141.7274  135.9954  155.6934 C.3     1  UNL1        0.0609
     23 C         141.2715  134.6083  155.3500 C.3     1  UNL1        0.0758
     24 N         142.0992  133.4248  155.7555 N.3     1  UNL1       -0.2737
     25 C         143.3829  133.6285  156.5043 C.3     1  UNL1        0.0758
     26 C         143.8388  135.0157  156.8477 C.3     1  UNL1        0.0609
     27 C         141.6433  132.0376  155.4121 C.3     1  UNL1        0.0575
     28 C         142.1078  130.6531  155.7549 C.3     1  UNL1        0.0160
     29 C         140.9985  130.0759  154.9264 C.3     1  UNL1        0.0028
     30 C         140.5341  131.4603  154.5837 C.3     1  UNL1        0.0160
@<TRIPOS>BOND
     1     7     8    1
     2     8     9   ar
     3     9    10   ar
     4    10    11   ar
     5    11    12   ar
     6    12    13    1
     7    12    14   ar
     8    14    15   ar
     9    15    16   ar
    10    16    17   ar
    11    17    18    2
    12    17    19   ar
    13    19     1    1
    14     1     2   ar
    15     2     3   ar
    16     3     4   ar
    17     4    20    1
    18    20    21    1
    19    21    22    1
    20    22    23    1
    21    23    24    1
    22    24    27    1
    23    27    28    1
    24    28    29    1
    25    29    30    1
    26    24    25    1
    27    25    26    1
    28     4     5   ar
    29     5     6   ar
    30    19     8   ar
    31     6     1   ar
    32    16    10   ar
    33    26    21    1
    34    30    27    1
@<TRIPOS>MOLECULE
*****
 30 34 0 0 0
SMALL
GASTEIGER

@<TRIPOS>ATOM
      1 C         139.3217  142.4944  160.2540 C.ar    1  UNL1        0.0681
      2 C         138.1298  142.7569  161.1260 C.ar    1  UNL1        0.0208
      3 C         137.7558  141.7784  162.1996 C.ar    1  UNL1        0.0384
      4 C         138.5737  140.5372  162.4010 C.ar    1  UNL1        0.1385
      5 C         139.7656  140.2747  161.5290 C.ar    1  UNL1        0.0384
      6 C         140.1396  141.2532  160.4554 C.ar    1  UNL1        0.0208
      7 C         141.0243  144.8730  160.9196 C.3     1  UNL1        0.0723
      8 C         140.5469  144.6623  159.5132 C.ar    1  UNL1        0.1268
      9 N         140.9209  145.6409  158.4397 N.ar    1  UNL1       -0.2318
     10 C         140.4436  145.4302  157.0333 C.ar    1  UNL1        0.0880
     11 C         140.8175  146.4089  155.9599 C.ar    1  UNL1        0.0307
     12 C         140.3402  146.1981  154.5536 C.ar    1  UNL1        0.0592
     13 CL        140.7141  147.1768  153.4800 Cl      1  UNL1       -0.0822
     14 C         139.4889  145.0088  154.2208 C.ar    1  UNL1        0.0116
     15 C         139.1149  144.0302  155.2943 C.ar    1  UNL1        0.0071
     16 C         139.5922  144.2409  156.7005 C.ar    1  UNL1        0.0742
     17 C         139.2183  143.2623  157.7741 C.ar    1  UNL1        0.2669
     18 O         138.3670  142.0729  157.4413 O.2     1  UNL1       -0.2665
     19 N         139.6956  143.4730  159.1804 N.ar    1  UNL1       -0.2626
     20 O         138.1997  139.5586  163.4746 O.3     1  UNL1       -0.4791
     21 C         138.6852  139.7641  164.8789 C.3     1  UNL1        0.1687
     22 C         139.8487  140.6727  165.1448 C.3     1  UNL1        0.0609
     23 C         140.3342  140.8782  166.5492 C.3     1  UNL1        0.0758
     24 N         139.6562  140.1750  167.6876 N.3     1  UNL1       -0.2737
     25 C         138.4927  139.2665  167.4216 C.3     1  UNL1        0.0758
     26 C         138.0072  139.0610  166.0173 C.3     1  UNL1        0.0609
     27 C         140.1416  140.3805  169.0919 C.3     1  UNL1        0.0575
     28 C         139.6974  141.2154  170.2563 C.3     1  UNL1        0.0160
     29 C         140.8282  140.6711  171.0778 C.3     1  UNL1        0.0028
     30 C         141.2724  139.8363  169.9136 C.3     1  UNL1        0.0160
@<TRIPOS>BOND
     1     7     8    1
     2     8     9   ar
     3     9    10   ar
     4    10    11   ar
     5    11    12   ar
     6    12    13    1
     7    12    14   ar
     8    14    15   ar
     9    15    16   ar
    10    16    17   ar
    11    17    18    2
    12    17    19   ar
    13    19     1    1
    14     1     2   ar
    15     2     3   ar
    16     3     4   ar
    17     4    20    1
    18    20    21    1
    19    21    22    1
    20    22    23    1
    21    23    24    1
    22    24    27    1
    23    27    28    1
    24    28    29    1
    25    29    30    1
    26    24    25    1
    27    25    26    1
    28     4     5   ar
    29     5     6   ar
    30    19     8   ar
    31     6     1   ar
    32    16    10   ar
    33    26    21    1
    34    30    27    1
