@<TRIPOS>MOLECULE
*****
 29 34 0 0 0
SMALL
GASTEIGER

@<TRIPOS>ATOM
      1 C         138.9895  139.8125  165.0120 C.ar    1  UNL1       -0.0001
      2 C         138.0560  139.1163  165.9574 C.ar    1  UNL1        0.0031
      3 C         138.3206  139.1499  167.4335 C.ar    1  UNL1        0.0366
      4 C         139.5187  139.8798  167.9642 C.ar    1  UNL1        0.1364
      5 C         140.4523  140.5761  167.0188 C.ar    1  UNL1        0.0355
      6 C         140.1877  140.5425  165.5427 C.ar    1  UNL1        0.0006
      7 C         141.6504  141.3060  167.5496 C.3     1  UNL1        0.1537
      8 C         142.8823  142.0720  167.9313 C.3     1  UNL1        0.2350
      9 O         143.5092  142.5979  166.6742 O.2     1  UNL1       -0.4478
     10 C         142.6647  142.1570  165.5155 C.2     1  UNL1        0.2770
     11 N         142.9236  142.4612  164.0696 N.pl3   1  UNL1       -0.3133
     12 N         141.5159  141.3586  166.0565 N.2     1  UNL1       -0.2204
     13 C         141.9149  141.3397  169.0257 C.3     1  UNL1        0.0666
     14 C         142.7594  141.7806  170.1843 C.3     1  UNL1        0.0061
     15 C         143.1457  142.1631  168.7863 C.3     1  UNL1        0.0061
     16 C         140.9814  140.6435  169.9710 C.3     1  UNL1        0.2074
     17 O         139.7832  139.9135  169.4403 O.3     1  UNL1       -0.4756
     18 H         143.7087  142.9963  163.8121 H       1  UNL1        0.1466
     19 H         142.3083  142.1256  163.3782 H       1  UNL1        0.1466
     20 C         138.0137  142.1749  157.5897 C.3     1  UNL1        0.1538
     21 N         138.1449  141.4612  158.9026 N.ar    1  UNL1       -0.2474
     22 C         138.4663  142.0962  160.2230 C.ar    1  UNL1        0.0966
     23 C         138.4977  141.0148  161.2620 C.ar    1  UNL1        0.0381
     24 C         138.7623  141.0485  162.7381 C.ar    1  UNL1        0.0031
     25 C         138.7249  139.7788  163.5359 C.ar    1  UNL1        0.0001
     26 C         138.4230  138.4754  162.8576 C.ar    1  UNL1        0.0016
     27 C         138.1584  138.4417  161.3815 C.ar    1  UNL1        0.0209
     28 C         138.1958  139.7115  160.5837 C.ar    1  UNL1        0.1024
     29 N         137.9777  139.9873  159.1256 N.ar    1  UNL1       -0.1692
@<TRIPOS>BOND
     1    20    21    1
     2    21    22   ar
     3    22    23   ar
     4    23    24   ar
     5    24    25   ar
     6    25     1    1
     7     1     2   ar
     8     2     3   ar
     9     3     4   ar
    10     4     5   ar
    11     5     6   ar
    12     5     7    1
    13     7     8    1
    14     8     9    1
    15     9    10    1
    16    10    11    1
    17    10    12    2
    18     7    13    1
    19    13    14    1
    20    14    15    1
    21    13    16    1
    22    16    17    1
    23    25    26   ar
    24    26    27   ar
    25    27    28   ar
    26    28    29   ar
    27    29    21   ar
    28    28    23   ar
    29     6     1   ar
    30    12     7    1
    31    15    13    1
    32    17     4    1
    33    11    18    1
    34    11    19    1
@<TRIPOS>MOLECULE
*****
 29 34 0 0 0
SMALL
GASTEIGER

@<TRIPOS>ATOM
      1 C         139.3710  139.3322  164.9824 C.ar    1  UNL1       -0.0001
      2 C         138.2380  138.7250  165.7554 C.ar    1  UNL1        0.0031
      3 C         138.1369  138.9453  167.2357 C.ar    1  UNL1        0.0366
      4 C         139.1688  139.7729  167.9429 C.ar    1  UNL1        0.1364
      5 C         140.3019  140.3801  167.1699 C.ar    1  UNL1        0.0355
      6 C         140.4030  140.1598  165.6896 C.ar    1  UNL1        0.0006
      7 C         141.3338  141.2077  167.8772 C.3     1  UNL1        0.1537
      8 C         142.4345  142.0541  168.4446 C.3     1  UNL1        0.2350
      9 O         143.3460  142.4446  167.3191 O.2     1  UNL1       -0.4478
     10 C         142.8086  141.8396  166.0561 C.2     1  UNL1        0.2770
     11 N         143.4094  141.9752  164.6884 N.pl3   1  UNL1       -0.3133
     12 N         141.5650  141.0751  166.4010 N.2     1  UNL1       -0.2204
     13 C         141.2327  141.4281  169.3575 C.3     1  UNL1        0.0666
     14 C         141.7701  142.0331  170.6204 C.3     1  UNL1        0.0061
     15 C         142.4826  142.2565  169.3195 C.3     1  UNL1        0.0061
     16 C         140.0997  140.8209  170.1305 C.3     1  UNL1        0.2074
     17 O         139.0677  139.9933  169.4232 O.3     1  UNL1       -0.4756
     18 H         144.2322  142.5008  164.5620 H       1  UNL1        0.1466
     19 H         142.9808  141.5386  163.9170 H       1  UNL1        0.1466
     20 C         142.4049  138.0011  157.8657 C.3     1  UNL1        0.1538
     21 N         141.5732  138.2626  159.0864 N.ar    1  UNL1       -0.2474
     22 C         142.0862  138.4064  160.4886 C.ar    1  UNL1        0.0966
     23 C         140.9126  138.6589  161.3879 C.ar    1  UNL1        0.0381
     24 C         140.8115  138.8792  162.8682 C.ar    1  UNL1        0.0031
     25 C         139.4721  139.1118  163.5021 C.ar    1  UNL1        0.0001
     26 C         138.2337  139.1240  162.6557 C.ar    1  UNL1        0.0016
     27 C         138.3348  138.9036  161.1754 C.ar    1  UNL1        0.0209
     28 C         139.6743  138.6711  160.5415 C.ar    1  UNL1        0.1024
     29 N         140.0825  138.4261  159.1191 N.ar    1  UNL1       -0.1692
@<TRIPOS>BOND
     1    20    21    1
     2    21    22   ar
     3    22    23   ar
     4    23    24   ar
     5    24    25   ar
     6    25     1    1
     7     1     2   ar
     8     2     3   ar
     9     3     4   ar
    10     4     5   ar
    11     5     6   ar
    12     5     7    1
    13     7     8    1
    14     8     9    1
    15     9    10    1
    16    10    11    1
    17    10    12    2
    18     7    13    1
    19    13    14    1
    20    14    15    1
    21    13    16    1
    22    16    17    1
    23    25    26   ar
    24    26    27   ar
    25    27    28   ar
    26    28    29   ar
    27    29    21   ar
    28    28    23   ar
    29     6     1   ar
    30    12     7    1
    31    15    13    1
    32    17     4    1
    33    11    18    1
    34    11    19    1
@<TRIPOS>MOLECULE
*****
 29 34 0 0 0
SMALL
GASTEIGER

@<TRIPOS>ATOM
      1 C         140.0570  138.9054  164.7384 C.ar    1  UNL1       -0.0001
      2 C         138.7990  138.2058  165.1603 C.ar    1  UNL1        0.0031
      3 C         138.2357  138.4374  166.5311 C.ar    1  UNL1        0.0366
      4 C         138.9304  139.3684  167.4800 C.ar    1  UNL1        0.1364
      5 C         140.1885  140.0680  167.0581 C.ar    1  UNL1        0.0355
      6 C         140.7518  139.8365  165.6873 C.ar    1  UNL1        0.0006
      7 C         140.8832  140.9991  168.0070 C.3     1  UNL1        0.1537
      8 C         141.6840  141.9533  168.8425 C.3     1  UNL1        0.2350
      9 O         142.8570  142.4112  168.0274 O.2     1  UNL1       -0.4478
     10 C         142.7812  141.7399  166.6881 C.2     1  UNL1        0.2770
     11 N         143.7543  141.9113  165.5596 N.pl3   1  UNL1       -0.3133
     12 N         141.5612  140.8672  166.6755 N.2     1  UNL1       -0.2204
     13 C         140.3199  141.2306  169.3778 C.3     1  UNL1        0.0666
     14 C         140.3958  141.9019  170.7170 C.3     1  UNL1        0.0061
     15 C         141.4473  142.1721  169.6821 C.3     1  UNL1        0.0061
     16 C         139.0619  140.5311  169.7997 C.3     1  UNL1        0.2074
     17 O         138.3671  139.6000  168.8508 O.3     1  UNL1       -0.4756
     18 H         144.5289  142.5100  165.6641 H       1  UNL1        0.1466
     19 H         143.6185  141.4252  164.7143 H       1  UNL1        0.1466
     20 C         140.5601  138.2635  156.9308 C.3     1  UNL1        0.1538
     21 N         140.7432  138.3160  158.4187 N.ar    1  UNL1       -0.2474
     22 C         139.6829  138.6480  159.4264 C.ar    1  UNL1        0.0966
     23 C         140.3031  138.5829  160.7906 C.ar    1  UNL1        0.0381
     24 C         139.7399  138.8144  162.1614 C.ar    1  UNL1        0.0031
     25 C         140.6203  138.6738  163.3676 C.ar    1  UNL1        0.0001
     26 C         142.0641  138.3016  163.2031 C.ar    1  UNL1        0.0016
     27 C         142.6274  138.0701  161.8323 C.ar    1  UNL1        0.0209
     28 C         141.7469  138.2107  160.6260 C.ar    1  UNL1        0.1024
     29 N         142.0189  138.0458  159.1601 N.ar    1  UNL1       -0.1692
@<TRIPOS>BOND
     1    20    21    1
     2    21    22   ar
     3    22    23   ar
     4    23    24   ar
     5    24    25   ar
     6    25     1    1
     7     1     2   ar
     8     2     3   ar
     9     3     4   ar
    10     4     5   ar
    11     5     6   ar
    12     5     7    1
    13     7     8    1
    14     8     9    1
    15     9    10    1
    16    10    11    1
    17    10    12    2
    18     7    13    1
    19    13    14    1
    20    14    15    1
    21    13    16    1
    22    16    17    1
    23    25    26   ar
    24    26    27   ar
    25    27    28   ar
    26    28    29   ar
    27    29    21   ar
    28    28    23   ar
    29     6     1   ar
    30    12     7    1
    31    15    13    1
    32    17     4    1
    33    11    18    1
    34    11    19    1
@<TRIPOS>MOLECULE
*****
 29 34 0 0 0
SMALL
GASTEIGER

@<TRIPOS>ATOM
      1 C         138.7135  140.6695  163.5670 C.ar    1  UNL1       -0.0001
      2 C         137.9241  139.7237  162.7114 C.ar    1  UNL1        0.0031
      3 C         137.7694  139.9913  161.2436 C.ar    1  UNL1        0.0366
      4 C         138.4042  141.2047  160.6314 C.ar    1  UNL1        0.1364
      5 C         139.1937  142.1506  161.4871 C.ar    1  UNL1        0.0355
      6 C         139.3484  141.8829  162.9549 C.ar    1  UNL1        0.0006
      7 C         139.8285  143.3639  160.8750 C.3     1  UNL1        0.1537
      8 C         140.5168  144.6116  160.4065 C.3     1  UNL1        0.2350
      9 O         141.1819  145.2469  161.5913 O.2     1  UNL1       -0.4478
     10 C         140.9047  144.3918  162.7922 C.2     1  UNL1        0.2770
     11 N         141.3805  144.6544  164.1903 N.pl3   1  UNL1       -0.3133
     12 N         140.0683  143.2281  162.3495 N.2     1  UNL1       -0.2204
     13 C         139.6738  143.6315  159.4072 C.3     1  UNL1        0.0666
     14 C         139.9510  144.4866  158.2064 C.3     1  UNL1        0.0061
     15 C         140.4961  144.8781  159.5478 C.3     1  UNL1        0.0061
     16 C         138.8843  142.6858  158.5515 C.3     1  UNL1        0.2074
     17 O         138.2495  141.4723  159.1636 O.3     1  UNL1       -0.4756
     18 H         141.9279  145.4497  164.3828 H       1  UNL1        0.1466
     19 H         141.1454  144.0314  164.9155 H       1  UNL1        0.1466
     20 C         141.0862  141.3204  171.0216 C.3     1  UNL1        0.1538
     21 N         140.4802  140.9720  169.6943 N.ar    1  UNL1       -0.2474
     22 C         140.7229  141.6884  168.3990 C.ar    1  UNL1        0.0966
     23 C         139.9178  141.0053  167.3336 C.ar    1  UNL1        0.0381
     24 C         139.7631  141.2729  165.8658 C.ar    1  UNL1        0.0031
     25 C         138.8682  140.4019  165.0349 C.ar    1  UNL1        0.0001
     26 C         138.1279  139.2632  165.6717 C.ar    1  UNL1        0.0016
     27 C         138.2826  138.9956  167.1395 C.ar    1  UNL1        0.0209
     28 C         139.1776  139.8667  167.9705 C.ar    1  UNL1        0.1024
     29 N         139.5251  139.8461  169.4295 N.ar    1  UNL1       -0.1692
@<TRIPOS>BOND
     1    20    21    1
     2    21    22   ar
     3    22    23   ar
     4    23    24   ar
     5    24    25   ar
     6    25     1    1
     7     1     2   ar
     8     2     3   ar
     9     3     4   ar
    10     4     5   ar
    11     5     6   ar
    12     5     7    1
    13     7     8    1
    14     8     9    1
    15     9    10    1
    16    10    11    1
    17    10    12    2
    18     7    13    1
    19    13    14    1
    20    14    15    1
    21    13    16    1
    22    16    17    1
    23    25    26   ar
    24    26    27   ar
    25    27    28   ar
    26    28    29   ar
    27    29    21   ar
    28    28    23   ar
    29     6     1   ar
    30    12     7    1
    31    15    13    1
    32    17     4    1
    33    11    18    1
    34    11    19    1
@<TRIPOS>MOLECULE
*****
 29 34 0 0 0
SMALL
GASTEIGER

@<TRIPOS>ATOM
      1 C         143.1700  139.3867  165.1611 C.ar    1  UNL1       -0.0001
      2 C         143.7613  138.2624  165.9587 C.ar    1  UNL1        0.0031
      3 C         143.5362  138.1944  167.4402 C.ar    1  UNL1        0.0366
      4 C         142.7197  139.2507  168.1240 C.ar    1  UNL1        0.1364
      5 C         142.1284  140.3751  167.3263 C.ar    1  UNL1        0.0355
      6 C         142.3535  140.4431  165.8449 C.ar    1  UNL1        0.0006
      7 C         141.3120  141.4314  168.0101 C.3     1  UNL1        0.1537
      8 C         140.4780  142.5539  168.5527 C.3     1  UNL1        0.2350
      9 O         140.1014  143.4469  167.4078 O.2     1  UNL1       -0.4478
     10 C         140.7028  142.8762  166.1576 C.2     1  UNL1        0.2770
     11 N         140.5778  143.4504  164.7775 N.pl3   1  UNL1       -0.3133
     12 N         141.4509  141.6306  166.5299 N.2     1  UNL1       -0.2204
     13 C         141.0869  141.3634  169.4916 C.3     1  UNL1        0.0666
     14 C         140.4855  141.9340  170.7417 C.3     1  UNL1        0.0061
     15 C         140.2741  142.6224  169.4259 C.3     1  UNL1        0.0061
     16 C         141.6782  140.2391  170.2892 C.3     1  UNL1        0.2074
     17 O         142.4946  139.1827  169.6054 O.3     1  UNL1       -0.4756
     18 H         140.0628  144.2769  164.6330 H       1  UNL1        0.1466
     19 H         141.0109  143.0008  164.0162 H       1  UNL1        0.1466
     20 C         142.7646  137.6965  157.5059 C.3     1  UNL1        0.1538
     21 N         143.0159  138.2329  158.8840 N.ar    1  UNL1       -0.2474
     22 C         142.4472  137.6866  160.1600 C.ar    1  UNL1        0.0966
     23 C         142.9599  138.5257  161.2927 C.ar    1  UNL1        0.0381
     24 C         142.7347  138.4578  162.7741 C.ar    1  UNL1        0.0031
     25 C         143.3951  139.4547  163.6796 C.ar    1  UNL1        0.0001
     26 C         144.2807  140.5197  163.1037 C.ar    1  UNL1        0.0016
     27 C         144.5058  140.5877  161.6222 C.ar    1  UNL1        0.0209
     28 C         143.8453  139.5907  160.7167 C.ar    1  UNL1        0.1024
     29 N         143.8800  139.4097  159.2281 N.ar    1  UNL1       -0.1692
@<TRIPOS>BOND
     1    20    21    1
     2    21    22   ar
     3    22    23   ar
     4    23    24   ar
     5    24    25   ar
     6    25     1    1
     7     1     2   ar
     8     2     3   ar
     9     3     4   ar
    10     4     5   ar
    11     5     6   ar
    12     5     7    1
    13     7     8    1
    14     8     9    1
    15     9    10    1
    16    10    11    1
    17    10    12    2
    18     7    13    1
    19    13    14    1
    20    14    15    1
    21    13    16    1
    22    16    17    1
    23    25    26   ar
    24    26    27   ar
    25    27    28   ar
    26    28    29   ar
    27    29    21   ar
    28    28    23   ar
    29     6     1   ar
    30    12     7    1
    31    15    13    1
    32    17     4    1
    33    11    18    1
    34    11    19    1
@<TRIPOS>MOLECULE
*****
 29 34 0 0 0
SMALL
GASTEIGER

@<TRIPOS>ATOM
      1 C         141.3642  138.7965  163.4274 C.ar    1  UNL1       -0.0001
      2 C         142.7898  138.3370  163.3472 C.ar    1  UNL1        0.0031
      3 C         143.4180  138.0711  162.0113 C.ar    1  UNL1        0.0366
      4 C         142.6206  138.2646  160.7556 C.ar    1  UNL1        0.1364
      5 C         141.1949  138.7241  160.8358 C.ar    1  UNL1        0.0355
      6 C         140.5667  138.9900  162.1717 C.ar    1  UNL1        0.0006
      7 C         140.3976  138.9176  159.5802 C.3     1  UNL1        0.1537
      8 C         139.4806  139.1539  158.4169 C.3     1  UNL1        0.2350
      9 O         138.1549  139.6037  158.9555 O.2     1  UNL1       -0.4478
     10 C         138.2525  139.6455  160.4518 C.2     1  UNL1        0.2770
     11 N         137.1566  140.0418  161.3962 N.pl3   1  UNL1       -0.3133
     12 N         139.6386  139.2215  160.8378 N.2     1  UNL1       -0.2204
     13 C         141.0258  138.6517  158.2443 C.3     1  UNL1        0.0666
     14 C         140.9281  138.6099  156.7481 C.3     1  UNL1        0.0061
     15 C         139.7423  139.0287  157.5657 C.3     1  UNL1        0.0061
     16 C         142.4514  138.1923  158.1641 C.3     1  UNL1        0.2074
     17 O         143.2489  137.9987  159.4197 O.3     1  UNL1       -0.4756
     18 H         136.2757  140.3061  161.0448 H       1  UNL1        0.1466
     19 H         137.3181  140.0376  162.3673 H       1  UNL1        0.1466
     20 C         140.5531  140.6551  171.0110 C.3     1  UNL1        0.1538
     21 N         140.4223  140.2654  169.5684 N.ar    1  UNL1       -0.2474
     22 C         141.5452  140.1521  168.5804 C.ar    1  UNL1        0.0966
     23 C         140.9625  139.7373  167.2619 C.ar    1  UNL1        0.0381
     24 C         141.5907  139.4714  165.9260 C.ar    1  UNL1        0.0031
     25 C         140.7359  139.0624  164.7633 C.ar    1  UNL1        0.0001
     26 C         139.2528  138.9193  164.9364 C.ar    1  UNL1        0.0016
     27 C         138.6245  139.1852  166.2723 C.ar    1  UNL1        0.0209
     28 C         139.4794  139.5942  167.4351 C.ar    1  UNL1        0.1024
     29 N         139.1455  139.9206  168.8605 N.ar    1  UNL1       -0.1692
@<TRIPOS>BOND
     1    20    21    1
     2    21    22   ar
     3    22    23   ar
     4    23    24   ar
     5    24    25   ar
     6    25     1    1
     7     1     2   ar
     8     2     3   ar
     9     3     4   ar
    10     4     5   ar
    11     5     6   ar
    12     5     7    1
    13     7     8    1
    14     8     9    1
    15     9    10    1
    16    10    11    1
    17    10    12    2
    18     7    13    1
    19    13    14    1
    20    14    15    1
    21    13    16    1
    22    16    17    1
    23    25    26   ar
    24    26    27   ar
    25    27    28   ar
    26    28    29   ar
    27    29    21   ar
    28    28    23   ar
    29     6     1   ar
    30    12     7    1
    31    15    13    1
    32    17     4    1
    33    11    18    1
    34    11    19    1
@<TRIPOS>MOLECULE
*****
 29 34 0 0 0
SMALL
GASTEIGER

@<TRIPOS>ATOM
      1 C         138.8038  141.5351  164.0489 C.ar    1  UNL1       -0.0001
      2 C         138.0859  142.8347  163.8351 C.ar    1  UNL1        0.0031
      3 C         137.8412  143.3360  162.4427 C.ar    1  UNL1        0.0366
      4 C         138.3144  142.5378  161.2641 C.ar    1  UNL1        0.1364
      5 C         139.0323  141.2382  161.4780 C.ar    1  UNL1        0.0355
      6 C         139.2770  140.7368  162.8704 C.ar    1  UNL1        0.0006
      7 C         139.5054  140.4400  160.2995 C.3     1  UNL1        0.1537
      8 C         140.0341  139.5375  159.2243 C.3     1  UNL1        0.2350
      9 O         140.6761  138.3545  159.8864 O.2     1  UNL1       -0.4478
     10 C         140.5442  138.5259  161.3708 C.2     1  UNL1        0.2770
     11 N         141.0474  137.5752  162.4162 N.pl3   1  UNL1       -0.3133
     12 N         139.8207  139.8148  161.6260 N.2     1  UNL1       -0.2204
     13 C         139.2607  140.9414  158.9071 C.3     1  UNL1        0.0666
     14 C         139.3926  140.7700  157.4228 C.3     1  UNL1        0.0061
     15 C         139.9484  139.7302  158.3501 C.3     1  UNL1        0.0061
     16 C         138.5429  142.2409  158.6932 C.3     1  UNL1        0.2074
     17 O         138.0696  143.0392  159.8717 O.3     1  UNL1       -0.4756
     18 H         141.5131  136.7503  162.1482 H       1  UNL1        0.1466
     19 H         140.9121  137.7763  163.3704 H       1  UNL1        0.1466
     20 C         141.5815  141.0233  171.3732 C.3     1  UNL1        0.1538
     21 N         140.9094  140.8791  170.0399 N.ar    1  UNL1       -0.2474
     22 C         141.0602  141.8076  168.8716 C.ar    1  UNL1        0.0966
     23 C         140.2125  141.2835  167.7505 C.ar    1  UNL1        0.0381
     24 C         139.9678  141.7848  166.3581 C.ar    1  UNL1        0.0031
     25 C         139.0485  141.0337  165.4413 C.ar    1  UNL1        0.0001
     26 C         138.3738  139.7812  165.9169 C.ar    1  UNL1        0.0016
     27 C         138.6185  139.2799  167.3093 C.ar    1  UNL1        0.0209
     28 C         139.5379  140.0310  168.2261 C.ar    1  UNL1        0.1024
     29 N         139.9685  139.7811  169.6410 N.ar    1  UNL1       -0.1692
@<TRIPOS>BOND
     1    20    21    1
     2    21    22   ar
     3    22    23   ar
     4    23    24   ar
     5    24    25   ar
     6    25     1    1
     7     1     2   ar
     8     2     3   ar
     9     3     4   ar
    10     4     5   ar
    11     5     6   ar
    12     5     7    1
    13     7     8    1
    14     8     9    1
    15     9    10    1
    16    10    11    1
    17    10    12    2
    18     7    13    1
    19    13    14    1
    20    14    15    1
    21    13    16    1
    22    16    17    1
    23    25    26   ar
    24    26    27   ar
    25    27    28   ar
    26    28    29   ar
    27    29    21   ar
    28    28    23   ar
    29     6     1   ar
    30    12     7    1
    31    15    13    1
    32    17     4    1
    33    11    18    1
    34    11    19    1
@<TRIPOS>MOLECULE
*****
 29 34 0 0 0
SMALL
GASTEIGER

@<TRIPOS>ATOM
      1 C         139.2840  141.0783  164.4368 C.ar    1  UNL1       -0.0001
      2 C         138.2190  140.1688  164.9739 C.ar    1  UNL1        0.0031
      3 C         138.3084  139.6584  166.3815 C.ar    1  UNL1        0.0366
      4 C         139.4628  140.0575  167.2521 C.ar    1  UNL1        0.1364
      5 C         140.5279  140.9671  166.7151 C.ar    1  UNL1        0.0355
      6 C         140.4385  141.4775  165.3075 C.ar    1  UNL1        0.0006
      7 C         141.6822  141.3662  167.5857 C.3     1  UNL1        0.1537
      8 C         142.8892  141.8489  168.3342 C.3     1  UNL1        0.2350
      9 O         143.6802  142.7338  167.4170 O.2     1  UNL1       -0.4478
     10 C         142.9621  142.7980  166.1016 C.2     1  UNL1        0.2770
     11 N         143.4017  143.5716  164.8940 N.pl3   1  UNL1       -0.3133
     12 N         141.7273  141.9528  166.2059 N.2     1  UNL1       -0.2204
     13 C         141.7716  140.8558  168.9934 C.3     1  UNL1        0.0666
     14 C         142.4897  140.7916  170.3087 C.3     1  UNL1        0.0061
     15 C         143.0530  141.6114  169.1860 C.3     1  UNL1        0.0061
     16 C         140.7066  139.9463  169.5304 C.3     1  UNL1        0.2074
     17 O         139.5521  139.5471  168.6598 O.3     1  UNL1       -0.4756
     18 H         144.2319  144.0998  164.9231 H       1  UNL1        0.1466
     19 H         142.8599  143.5511  164.0722 H       1  UNL1        0.1466
     20 C         140.3629  145.5613  158.0838 C.3     1  UNL1        0.1538
     21 N         139.9936  144.5445  159.1228 N.ar    1  UNL1       -0.2474
     22 C         140.4387  144.5458  160.5553 C.ar    1  UNL1        0.0966
     23 C         139.8344  143.3499  161.2295 C.ar    1  UNL1        0.0381
     24 C         139.9238  142.8395  162.6372 C.ar    1  UNL1        0.0031
     25 C         139.1946  141.5887  163.0292 C.ar    1  UNL1        0.0001
     26 C         138.3761  140.8482  162.0134 C.ar    1  UNL1        0.0016
     27 C         138.2867  141.3585  160.6058 C.ar    1  UNL1        0.0209
     28 C         139.0159  142.6095  160.2138 C.ar    1  UNL1        0.1024
     29 N         139.1142  143.3477  158.9118 N.ar    1  UNL1       -0.1692
@<TRIPOS>BOND
     1    20    21    1
     2    21    22   ar
     3    22    23   ar
     4    23    24   ar
     5    24    25   ar
     6    25     1    1
     7     1     2   ar
     8     2     3   ar
     9     3     4   ar
    10     4     5   ar
    11     5     6   ar
    12     5     7    1
    13     7     8    1
    14     8     9    1
    15     9    10    1
    16    10    11    1
    17    10    12    2
    18     7    13    1
    19    13    14    1
    20    14    15    1
    21    13    16    1
    22    16    17    1
    23    25    26   ar
    24    26    27   ar
    25    27    28   ar
    26    28    29   ar
    27    29    21   ar
    28    28    23   ar
    29     6     1   ar
    30    12     7    1
    31    15    13    1
    32    17     4    1
    33    11    18    1
    34    11    19    1
@<TRIPOS>MOLECULE
*****
 29 34 0 0 0
SMALL
GASTEIGER

@<TRIPOS>ATOM
      1 C         142.9554  141.2867  164.2140 C.ar    1  UNL1       -0.0001
      2 C         143.8912  142.2700  164.8521 C.ar    1  UNL1        0.0031
      3 C         143.6936  142.6735  166.2833 C.ar    1  UNL1        0.0366
      4 C         142.5600  142.0937  167.0762 C.ar    1  UNL1        0.1364
      5 C         141.6241  141.1103  166.4381 C.ar    1  UNL1        0.0355
      6 C         141.8218  140.7069  165.0069 C.ar    1  UNL1        0.0006
      7 C         140.4906  140.5305  167.2310 C.3     1  UNL1        0.1537
      8 C         139.3187  139.8701  167.8948 C.3     1  UNL1        0.2350
      9 O         138.6661  138.9664  166.8911 O.2     1  UNL1       -0.4478
     10 C         139.4347  139.0683  165.6069 C.2     1  UNL1        0.2770
     11 N         139.1293  138.3326  164.3359 N.pl3   1  UNL1       -0.3133
     12 N         140.5623  140.0349  165.8171 N.2     1  UNL1       -0.2204
     13 C         140.2929  140.9339  168.6622 C.3     1  UNL1        0.0666
     14 C         139.5243  140.8321  169.9462 C.3     1  UNL1        0.0061
     15 C         139.0981  140.0315  168.7516 C.3     1  UNL1        0.0061
     16 C         141.2287  141.9172  169.3003 C.3     1  UNL1        0.2074
     17 O         142.3623  142.4971  168.5074 O.3     1  UNL1       -0.4756
     18 H         138.3630  137.7159  164.2961 H       1  UNL1        0.1466
     19 H         139.6952  138.4666  163.5415 H       1  UNL1        0.1466
     20 C         142.7160  137.0915  157.5833 C.3     1  UNL1        0.1538
     21 N         142.9024  138.0867  158.6901 N.ar    1  UNL1       -0.2474
     22 C         142.4309  137.9299  160.1054 C.ar    1  UNL1        0.0966
     23 C         142.8302  139.1597  160.8659 C.ar    1  UNL1        0.0381
     24 C         142.6325  139.5631  162.2970 C.ar    1  UNL1        0.0031
     25 C         143.1531  140.8833  162.7828 C.ar    1  UNL1        0.0001
     26 C         143.8714  141.8001  161.8375 C.ar    1  UNL1        0.0016
     27 C         144.0691  141.3966  160.4064 C.ar    1  UNL1        0.0209
     28 C         143.5485  140.0764  159.9206 C.ar    1  UNL1        0.1024
     29 N         143.5931  139.4133  158.5759 N.ar    1  UNL1       -0.1692
@<TRIPOS>BOND
     1    20    21    1
     2    21    22   ar
     3    22    23   ar
     4    23    24   ar
     5    24    25   ar
     6    25     1    1
     7     1     2   ar
     8     2     3   ar
     9     3     4   ar
    10     4     5   ar
    11     5     6   ar
    12     5     7    1
    13     7     8    1
    14     8     9    1
    15     9    10    1
    16    10    11    1
    17    10    12    2
    18     7    13    1
    19    13    14    1
    20    14    15    1
    21    13    16    1
    22    16    17    1
    23    25    26   ar
    24    26    27   ar
    25    27    28   ar
    26    28    29   ar
    27    29    21   ar
    28    28    23   ar
    29     6     1   ar
    30    12     7    1
    31    15    13    1
    32    17     4    1
    33    11    18    1
    34    11    19    1
