@<TRIPOS>MOLECULE
*****
 39 43 0 0 0
SMALL
GASTEIGER

@<TRIPOS>ATOM
      1 C         140.6703  141.0245  167.8576 C.ar    1  UNL1        0.0222
      2 C         139.8743  140.6000  169.0560 C.ar    1  UNL1        0.0032
      3 C         140.5568  139.9267  170.2097 C.ar    1  UNL1        0.0207
      4 C         142.0354  139.6779  170.1649 C.ar    1  UNL1        0.0990
      5 N         142.8314  140.1024  168.9665 N.ar    1  UNL1       -0.2393
      6 C         142.1489  140.7757  167.8129 C.ar    1  UNL1        0.1346
      7 C         142.9449  141.2002  166.6144 C.2     1  UNL1        0.2668
      8 O         143.6791  142.5082  166.6267 O.2     1  UNL1       -0.2683
      9 N         143.0068  140.3167  165.4038 N.am    1  UNL1       -0.2747
     10 C         142.2726  139.0087  165.3916 C.3     1  UNL1        0.0955
     11 C         142.3345  138.1253  164.1809 C.3     1  UNL1        0.0410
     12 C         143.1306  138.5498  162.9825 C.3     1  UNL1        0.0724
     13 C         143.8647  139.8578  162.9948 C.3     1  UNL1        0.0410
     14 C         143.8029  140.7412  164.2055 C.3     1  UNL1        0.0955
     15 N         143.1924  137.6663  161.7719 N.pl3   1  UNL1       -0.3339
     16 H         143.8401  136.9257  161.7356 H       1  UNL1        0.1468
     17 C         142.2675  137.9112  160.6167 C.ar    1  UNL1        0.0447
     18 C         140.8293  138.2556  160.8673 C.ar    1  UNL1        0.0166
     19 C         139.9044  138.5004  159.7121 C.ar    1  UNL1        0.0309
     20 C         140.4177  138.4009  158.3062 C.ar    1  UNL1        0.1402
     21 F         139.4928  138.6458  157.1510 F       1  UNL1       -0.2042
     22 C         141.8559  138.0565  158.0556 C.ar    1  UNL1        0.0309
     23 C         142.7808  137.8117  159.2108 C.ar    1  UNL1        0.0166
     24 C         138.6228  143.0442  164.3967 C.ar    1  UNL1       -0.0061
     25 C         138.4940  141.5613  164.5827 C.ar    1  UNL1       -0.0029
     26 C         139.1765  140.8881  165.7363 C.ar    1  UNL1       -0.0002
     27 C         139.9878  141.6977  166.7040 C.ar    1  UNL1        0.0016
     28 C         140.1166  143.1805  166.5179 C.ar    1  UNL1       -0.0002
     29 C         139.4341  143.8538  165.3643 C.ar    1  UNL1       -0.0029
     30 C         137.9402  143.7175  163.2430 C.3     1  UNL1        0.0992
     31 C         141.2417  145.4120  159.6058 C.3     1  UNL1        0.0186
     32 C         140.1700  144.4586  160.0448 C.3     1  UNL1        0.0702
     33 C         139.5910  144.5647  161.4244 C.3     1  UNL1        0.0882
     34 N         138.5193  143.6113  161.8633 N.3     1  UNL1       -0.2666
     35 C         138.0267  142.5519  160.9227 C.3     1  UNL1        0.0882
     36 C         138.6058  142.4458  159.5431 C.3     1  UNL1        0.0702
     37 C         138.1132  141.3863  158.6023 C.3     1  UNL1        0.0186
     38 N         139.6774  143.3992  159.1041 N.3     1  UNL1       -0.2974
     39 H         139.3227  143.8808  158.2779 H       1  UNL1        0.1232
@<TRIPOS>BOND
     1    32    31    1
     2    32    33    1
     3    33    34    1
     4    34    30    1
     5    30    24    1
     6    24    25   ar
     7    25    26   ar
     8    26    27   ar
     9    27     1    1
    10     1     2   ar
    11     2     3   ar
    12     3     4   ar
    13     4     5   ar
    14     5     6   ar
    15     6     7    1
    16     7     8    2
    17     7     9   am
    18     9    10    1
    19    10    11    1
    20    11    12    1
    21    12    15    1
    22    15    17    1
    23    17    18   ar
    24    18    19   ar
    25    19    20   ar
    26    20    21    1
    27    20    22   ar
    28    22    23   ar
    29    12    13    1
    30    13    14    1
    31    27    28   ar
    32    28    29   ar
    33    34    35    1
    34    35    36    1
    35    36    37    1
    36    36    38    1
    37    38    32    1
    38    29    24   ar
    39     6     1   ar
    40    14     9    1
    41    23    17   ar
    42    15    16    1
    43    38    39    1
@<TRIPOS>MOLECULE
*****
 39 43 0 0 0
SMALL
GASTEIGER

@<TRIPOS>ATOM
      1 C         141.1972  141.7993  167.9959 C.ar    1  UNL1        0.0222
      2 C         140.5363  142.6876  169.0079 C.ar    1  UNL1        0.0032
      3 C         139.8789  142.0888  170.2159 C.ar    1  UNL1        0.0207
      4 C         139.8826  140.6016  170.4120 C.ar    1  UNL1        0.0990
      5 N         140.5435  139.7133  169.4000 N.ar    1  UNL1       -0.2393
      6 C         141.2008  140.3122  168.1920 C.ar    1  UNL1        0.1346
      7 C         141.8618  139.4238  167.1800 C.2     1  UNL1        0.2668
      8 O         143.2884  139.0015  167.3707 O.2     1  UNL1       -0.2683
      9 N         141.0961  138.9578  165.9773 N.am    1  UNL1       -0.2747
     10 C         139.6694  139.3801  165.7865 C.3     1  UNL1        0.0955
     11 C         138.9038  138.9141  164.5838 C.3     1  UNL1        0.0410
     12 C         139.5647  138.0258  163.5718 C.3     1  UNL1        0.0724
     13 C         140.9913  137.6035  163.7626 C.3     1  UNL1        0.0410
     14 C         141.7570  138.0695  164.9653 C.3     1  UNL1        0.0955
     15 N         138.7990  137.5598  162.3691 N.pl3   1  UNL1       -0.3339
     16 H         138.3170  136.7017  162.3945 H       1  UNL1        0.1468
     17 C         138.7677  138.4011  161.1276 C.ar    1  UNL1        0.0447
     18 C         137.6516  139.3799  160.9129 C.ar    1  UNL1        0.0166
     19 C         137.6203  140.2212  159.6714 C.ar    1  UNL1        0.0309
     20 C         138.7051  140.0838  158.6447 C.ar    1  UNL1        0.1402
     21 F         138.6738  140.9251  157.4033 F       1  UNL1       -0.2042
     22 C         139.8213  139.1050  158.8595 C.ar    1  UNL1        0.0309
     23 C         139.8526  138.2637  160.1009 C.ar    1  UNL1        0.0166
     24 C         143.1692  143.5958  164.3718 C.ar    1  UNL1       -0.0061
     25 C         144.0065  143.1066  165.5162 C.ar    1  UNL1       -0.0029
     26 C         143.3492  142.5077  166.7242 C.ar    1  UNL1       -0.0002
     27 C         141.8545  142.3981  166.7879 C.ar    1  UNL1        0.0016
     28 C         141.0172  142.8873  165.6435 C.ar    1  UNL1       -0.0002
     29 C         141.6746  143.4861  164.4355 C.ar    1  UNL1       -0.0029
     30 C         143.8265  144.1946  163.1638 C.3     1  UNL1        0.0992
     31 C         140.2907  144.9525  159.4323 C.3     1  UNL1        0.0186
     32 C         141.5301  144.2681  159.9278 C.3     1  UNL1        0.0702
     33 C         142.0586  144.5735  161.2980 C.3     1  UNL1        0.0882
     34 N         143.2980  143.8892  161.7935 N.3     1  UNL1       -0.2666
     35 C         144.0089  142.8994  160.9189 C.3     1  UNL1        0.0882
     36 C         143.4804  142.5940  159.5488 C.3     1  UNL1        0.0702
     37 C         144.1913  141.6042  158.6741 C.3     1  UNL1        0.0186
     38 N         142.2410  143.2784  159.0532 N.3     1  UNL1       -0.2974
     39 H         141.5681  142.5446  158.8317 H       1  UNL1        0.1232
@<TRIPOS>BOND
     1    32    31    1
     2    32    33    1
     3    33    34    1
     4    34    30    1
     5    30    24    1
     6    24    25   ar
     7    25    26   ar
     8    26    27   ar
     9    27     1    1
    10     1     2   ar
    11     2     3   ar
    12     3     4   ar
    13     4     5   ar
    14     5     6   ar
    15     6     7    1
    16     7     8    2
    17     7     9   am
    18     9    10    1
    19    10    11    1
    20    11    12    1
    21    12    15    1
    22    15    17    1
    23    17    18   ar
    24    18    19   ar
    25    19    20   ar
    26    20    21    1
    27    20    22   ar
    28    22    23   ar
    29    12    13    1
    30    13    14    1
    31    27    28   ar
    32    28    29   ar
    33    34    35    1
    34    35    36    1
    35    36    37    1
    36    36    38    1
    37    38    32    1
    38    29    24   ar
    39     6     1   ar
    40    14     9    1
    41    23    17   ar
    42    15    16    1
    43    38    39    1
@<TRIPOS>MOLECULE
*****
 39 43 0 0 0
SMALL
GASTEIGER

@<TRIPOS>ATOM
      1 C         140.8137  141.0746  167.7092 C.ar    1  UNL1        0.0222
      2 C         139.9655  140.4463  168.7750 C.ar    1  UNL1        0.0032
      3 C         140.6129  139.7506  169.9356 C.ar    1  UNL1        0.0207
      4 C         142.1085  139.6832  170.0303 C.ar    1  UNL1        0.0990
      5 N         142.9565  140.3115  168.9645 N.ar    1  UNL1       -0.2393
      6 C         142.3092  141.0072  167.8040 C.ar    1  UNL1        0.1346
      7 C         143.1573  141.6355  166.7381 C.2     1  UNL1        0.2668
      8 O         143.6864  143.0267  166.9238 O.2     1  UNL1       -0.2683
      9 N         143.4764  140.8725  165.4867 N.am    1  UNL1       -0.2747
     10 C         142.9473  139.4813  165.3011 C.3     1  UNL1        0.0955
     11 C         143.2664  138.7183  164.0497 C.3     1  UNL1        0.0410
     12 C         144.1146  139.3466  162.9839 C.3     1  UNL1        0.0724
     13 C         144.6436  140.7379  163.1695 C.3     1  UNL1        0.0410
     14 C         144.3245  141.5008  164.4210 C.3     1  UNL1        0.0955
     15 N         144.4336  138.5837  161.7325 N.pl3   1  UNL1       -0.3339
     16 H         145.1438  137.9018  161.7392 H       1  UNL1        0.1468
     17 C         143.6708  138.8596  160.4707 C.ar    1  UNL1        0.0447
     18 C         142.8500  137.7751  159.8382 C.ar    1  UNL1        0.0166
     19 C         142.0872  138.0510  158.5765 C.ar    1  UNL1        0.0309
     20 C         142.1451  139.4114  157.9473 C.ar    1  UNL1        0.1402
     21 F         141.3823  139.6874  156.6856 F       1  UNL1       -0.2042
     22 C         142.9659  140.4959  158.5798 C.ar    1  UNL1        0.0309
     23 C         143.7287  140.2200  159.8416 C.ar    1  UNL1        0.0166
     24 C         138.8716  143.1617  164.2275 C.ar    1  UNL1       -0.0061
     25 C         139.4295  143.9632  165.3662 C.ar    1  UNL1       -0.0029
     26 C         140.0769  143.2675  166.5267 C.ar    1  UNL1       -0.0002
     27 C         140.1663  141.7703  166.5486 C.ar    1  UNL1        0.0016
     28 C         139.6085  140.9689  165.4100 C.ar    1  UNL1       -0.0002
     29 C         138.9611  141.6646  164.2495 C.ar    1  UNL1       -0.0029
     30 C         138.2242  143.8574  163.0670 C.3     1  UNL1        0.0992
     31 C         138.2792  141.1452  158.6351 C.3     1  UNL1        0.0186
     32 C         138.7789  142.2923  159.4624 C.3     1  UNL1        0.0702
     33 C         138.2517  142.5013  160.8510 C.3     1  UNL1        0.0882
     34 N         138.7515  143.6485  161.6782 N.3     1  UNL1       -0.2666
     35 C         139.7784  144.5866  161.1169 C.3     1  UNL1        0.0882
     36 C         140.3056  144.3777  159.7282 C.3     1  UNL1        0.0702
     37 C         141.3325  145.3159  159.1667 C.3     1  UNL1        0.0186
     38 N         139.8058  143.2305  158.9010 N.3     1  UNL1       -0.2974
     39 H         140.6198  142.6655  158.6589 H       1  UNL1        0.1232
@<TRIPOS>BOND
     1    32    31    1
     2    32    33    1
     3    33    34    1
     4    34    30    1
     5    30    24    1
     6    24    25   ar
     7    25    26   ar
     8    26    27   ar
     9    27     1    1
    10     1     2   ar
    11     2     3   ar
    12     3     4   ar
    13     4     5   ar
    14     5     6   ar
    15     6     7    1
    16     7     8    2
    17     7     9   am
    18     9    10    1
    19    10    11    1
    20    11    12    1
    21    12    15    1
    22    15    17    1
    23    17    18   ar
    24    18    19   ar
    25    19    20   ar
    26    20    21    1
    27    20    22   ar
    28    22    23   ar
    29    12    13    1
    30    13    14    1
    31    27    28   ar
    32    28    29   ar
    33    34    35    1
    34    35    36    1
    35    36    37    1
    36    36    38    1
    37    38    32    1
    38    29    24   ar
    39     6     1   ar
    40    14     9    1
    41    23    17   ar
    42    15    16    1
    43    38    39    1
@<TRIPOS>MOLECULE
*****
 39 43 0 0 0
SMALL
GASTEIGER

@<TRIPOS>ATOM
      1 C         141.7861  141.8575  167.4757 C.ar    1  UNL1        0.0222
      2 C         142.6200  142.5065  168.5404 C.ar    1  UNL1        0.0032
      3 C         143.1775  141.6822  169.6628 C.ar    1  UNL1        0.0207
      4 C         142.9011  140.2090  169.7206 C.ar    1  UNL1        0.0990
      5 N         142.0671  139.5601  168.6560 N.ar    1  UNL1       -0.2393
      6 C         141.5097  140.3843  167.5336 C.ar    1  UNL1        0.1346
      7 C         140.6757  139.7353  166.4689 C.2     1  UNL1        0.2668
      8 O         139.1883  139.6381  166.6366 O.2     1  UNL1       -0.2683
      9 N         141.3292  139.1835  165.2367 N.am    1  UNL1       -0.2747
     10 C         142.8166  139.2807  165.0690 C.3     1  UNL1        0.0955
     11 C         143.4701  138.7289  163.8368 C.3     1  UNL1        0.0410
     12 C         142.6361  138.0799  162.7721 C.3     1  UNL1        0.0724
     13 C         141.1487  137.9827  162.9398 C.3     1  UNL1        0.0410
     14 C         140.4952  138.5345  164.1721 C.3     1  UNL1        0.0955
     15 N         143.2896  137.5281  161.5399 N.pl3   1  UNL1       -0.3339
     16 H         143.7203  136.6431  161.5654 H       1  UNL1        0.1468
     17 C         143.2869  138.3245  160.2688 C.ar    1  UNL1        0.0447
     18 C         143.8530  139.7135  160.2529 C.ar    1  UNL1        0.0166
     19 C         143.8503  140.5100  158.9818 C.ar    1  UNL1        0.0309
     20 C         143.2815  139.9175  157.7267 C.ar    1  UNL1        0.1402
     21 F         143.2788  140.7140  156.4556 F       1  UNL1       -0.2042
     22 C         142.7154  138.5285  157.7426 C.ar    1  UNL1        0.0309
     23 C         142.7181  137.7321  159.0137 C.ar    1  UNL1        0.0166
     24 C         140.1136  144.3301  164.1084 C.ar    1  UNL1       -0.0061
     25 C         139.2906  144.0830  165.3380 C.ar    1  UNL1       -0.0029
     26 C         139.8481  143.2588  166.4604 C.ar    1  UNL1       -0.0002
     27 C         141.2286  142.6817  166.3533 C.ar    1  UNL1        0.0016
     28 C         142.0515  142.9288  165.1238 C.ar    1  UNL1       -0.0002
     29 C         141.4940  143.7530  164.0013 C.ar    1  UNL1       -0.0029
     30 C         139.5561  145.1543  162.9860 C.3     1  UNL1        0.0992
     31 C         140.9236  145.7557  158.0092 C.3     1  UNL1        0.0186
     32 C         140.2858  144.9356  159.0911 C.3     1  UNL1        0.0702
     33 C         140.2399  145.4550  160.4975 C.3     1  UNL1        0.0882
     34 N         139.6020  144.6349  161.5795 N.3     1  UNL1       -0.2666
     35 C         139.0100  143.2954  161.2550 C.3     1  UNL1        0.0882
     36 C         139.0559  142.7760  159.8485 C.3     1  UNL1        0.0702
     37 C         138.4639  141.4365  159.5240 C.3     1  UNL1        0.0186
     38 N         139.6938  143.5961  158.7666 N.3     1  UNL1       -0.2974
     39 H         138.9786  143.7544  158.0567 H       1  UNL1        0.1232
@<TRIPOS>BOND
     1    32    31    1
     2    32    33    1
     3    33    34    1
     4    34    30    1
     5    30    24    1
     6    24    25   ar
     7    25    26   ar
     8    26    27   ar
     9    27     1    1
    10     1     2   ar
    11     2     3   ar
    12     3     4   ar
    13     4     5   ar
    14     5     6   ar
    15     6     7    1
    16     7     8    2
    17     7     9   am
    18     9    10    1
    19    10    11    1
    20    11    12    1
    21    12    15    1
    22    15    17    1
    23    17    18   ar
    24    18    19   ar
    25    19    20   ar
    26    20    21    1
    27    20    22   ar
    28    22    23   ar
    29    12    13    1
    30    13    14    1
    31    27    28   ar
    32    28    29   ar
    33    34    35    1
    34    35    36    1
    35    36    37    1
    36    36    38    1
    37    38    32    1
    38    29    24   ar
    39     6     1   ar
    40    14     9    1
    41    23    17   ar
    42    15    16    1
    43    38    39    1
@<TRIPOS>MOLECULE
*****
 39 43 0 0 0
SMALL
GASTEIGER

@<TRIPOS>ATOM
      1 C         141.0398  142.3082  167.9342 C.ar    1  UNL1        0.0222
      2 C         140.6641  143.2711  169.0213 C.ar    1  UNL1        0.0032
      3 C         141.5569  143.4406  170.2147 C.ar    1  UNL1        0.0207
      4 C         142.8255  142.6470  170.3210 C.ar    1  UNL1        0.0990
      5 N         143.2011  141.6841  169.2339 N.ar    1  UNL1       -0.2393
      6 C         142.3083  141.5147  168.0405 C.ar    1  UNL1        0.1346
      7 C         142.6840  140.5518  166.9534 C.2     1  UNL1        0.2668
      8 O         142.4047  139.0874  167.1193 O.2     1  UNL1       -0.2683
      9 N         143.3389  141.0533  165.7006 N.am    1  UNL1       -0.2747
     10 C         143.6181  142.5177  165.5348 C.3     1  UNL1        0.0955
     11 C         144.2730  143.0192  164.2820 C.3     1  UNL1        0.0410
     12 C         144.6487  142.0563  163.1949 C.3     1  UNL1        0.0724
     13 C         144.3694  140.5918  163.3608 C.3     1  UNL1        0.0410
     14 C         143.7145  140.0904  164.6136 C.3     1  UNL1        0.0955
     15 N         145.3036  142.5578  161.9421 N.pl3   1  UNL1       -0.3339
     16 H         146.2753  142.7147  161.9236 H       1  UNL1        0.1468
     17 C         144.4780  142.8201  160.7176 C.ar    1  UNL1        0.0447
     18 C         145.0216  142.4847  159.3605 C.ar    1  UNL1        0.0166
     19 C         144.1960  142.7470  158.1359 C.ar    1  UNL1        0.0309
     20 C         142.8267  143.3449  158.2685 C.ar    1  UNL1        0.1402
     21 F         142.0011  143.6073  157.0440 F       1  UNL1       -0.2042
     22 C         142.2831  143.6803  159.6256 C.ar    1  UNL1        0.0309
     23 C         143.1087  143.4180  160.8502 C.ar    1  UNL1        0.0166
     24 C         138.3613  141.8000  164.3541 C.ar    1  UNL1       -0.0061
     25 C         139.0639  143.1049  164.5859 C.ar    1  UNL1       -0.0029
     26 C         139.9567  143.2743  165.7793 C.ar    1  UNL1       -0.0002
     27 C         140.1470  142.1388  166.7408 C.ar    1  UNL1        0.0016
     28 C         139.4444  140.8340  166.5090 C.ar    1  UNL1       -0.0002
     29 C         138.5516  140.6645  165.3156 C.ar    1  UNL1       -0.0029
     30 C         137.4685  141.6305  163.1607 C.3     1  UNL1        0.0992
     31 C         138.8992  143.0895  158.3832 C.3     1  UNL1        0.0186
     32 C         138.7750  142.0266  159.4343 C.3     1  UNL1        0.0702
     33 C         138.1839  142.3600  160.7719 C.3     1  UNL1        0.0882
     34 N         138.0597  141.2971  161.8230 N.3     1  UNL1       -0.2666
     35 C         138.5267  139.9007  161.5365 C.3     1  UNL1        0.0882
     36 C         139.1178  139.5673  160.1989 C.3     1  UNL1        0.0702
     37 C         139.5849  138.1709  159.9123 C.3     1  UNL1        0.0186
     38 N         139.2420  140.6302  159.1478 N.3     1  UNL1       -0.2974
     39 H         138.7166  140.3047  158.3363 H       1  UNL1        0.1232
@<TRIPOS>BOND
     1    32    31    1
     2    32    33    1
     3    33    34    1
     4    34    30    1
     5    30    24    1
     6    24    25   ar
     7    25    26   ar
     8    26    27   ar
     9    27     1    1
    10     1     2   ar
    11     2     3   ar
    12     3     4   ar
    13     4     5   ar
    14     5     6   ar
    15     6     7    1
    16     7     8    2
    17     7     9   am
    18     9    10    1
    19    10    11    1
    20    11    12    1
    21    12    15    1
    22    15    17    1
    23    17    18   ar
    24    18    19   ar
    25    19    20   ar
    26    20    21    1
    27    20    22   ar
    28    22    23   ar
    29    12    13    1
    30    13    14    1
    31    27    28   ar
    32    28    29   ar
    33    34    35    1
    34    35    36    1
    35    36    37    1
    36    36    38    1
    37    38    32    1
    38    29    24   ar
    39     6     1   ar
    40    14     9    1
    41    23    17   ar
    42    15    16    1
    43    38    39    1
@<TRIPOS>MOLECULE
*****
 39 43 0 0 0
SMALL
GASTEIGER

@<TRIPOS>ATOM
      1 C         142.3586  141.6030  167.9246 C.ar    1  UNL1        0.0222
      2 C         143.3661  142.1458  168.8944 C.ar    1  UNL1        0.0032
      3 C         142.9076  142.8221  170.1523 C.ar    1  UNL1        0.0207
      4 C         141.4416  142.9556  170.4404 C.ar    1  UNL1        0.0990
      5 N         140.4341  142.4129  169.4707 N.ar    1  UNL1       -0.2393
      6 C         140.8927  141.7366  168.2128 C.ar    1  UNL1        0.1346
      7 C         139.8851  141.1938  167.2430 C.2     1  UNL1        0.2668
      8 O         139.1965  139.8919  167.5271 O.2     1  UNL1       -0.2683
      9 N         139.5663  141.9530  165.9893 N.am    1  UNL1       -0.2747
     10 C         140.2549  143.2549  165.7052 C.3     1  UNL1        0.0955
     11 C         139.9361  144.0141  164.4514 C.3     1  UNL1        0.0410
     12 C         138.9286  143.4714  163.4817 C.3     1  UNL1        0.0724
     13 C         138.2399  142.1694  163.7657 C.3     1  UNL1        0.0410
     14 C         138.5588  141.4102  165.0196 C.3     1  UNL1        0.0955
     15 N         138.6097  144.2305  162.2279 N.pl3   1  UNL1       -0.3339
     16 H         137.7978  144.7854  162.1815 H       1  UNL1        0.1468
     17 C         139.5279  144.1443  161.0449 C.ar    1  UNL1        0.0447
     18 C         139.6224  142.8695  160.2602 C.ar    1  UNL1        0.0166
     19 C         140.5406  142.7832  159.0772 C.ar    1  UNL1        0.0309
     20 C         141.3643  143.9718  158.6789 C.ar    1  UNL1        0.1402
     21 F         142.2824  143.8856  157.4959 F       1  UNL1       -0.2042
     22 C         141.2698  145.2467  159.4636 C.ar    1  UNL1        0.0309
     23 C         140.3516  145.3329  160.6466 C.ar    1  UNL1        0.0166
     24 C         143.7341  139.5742  164.1508 C.ar    1  UNL1       -0.0061
     25 C         143.8216  141.0665  164.2747 C.ar    1  UNL1       -0.0029
     26 C         143.3631  141.7428  165.5326 C.ar    1  UNL1       -0.0002
     27 C         142.8171  140.9267  166.6667 C.ar    1  UNL1        0.0016
     28 C         142.7297  139.4345  166.5427 C.ar    1  UNL1       -0.0002
     29 C         143.1882  138.7582  165.2848 C.ar    1  UNL1       -0.0029
     30 C         144.1927  138.8979  162.8929 C.3     1  UNL1        0.0992
     31 C         143.9039  140.2870  157.8942 C.3     1  UNL1        0.0186
     32 C         143.2533  139.7400  159.1301 C.3     1  UNL1        0.0702
     33 C         144.0483  139.5924  160.3935 C.3     1  UNL1        0.0882
     34 N         143.3976  139.0454  161.6294 N.3     1  UNL1       -0.2666
     35 C         141.9521  138.6461  161.6019 C.3     1  UNL1        0.0882
     36 C         141.1571  138.7937  160.3385 C.3     1  UNL1        0.0702
     37 C         139.7115  138.3943  160.3110 C.3     1  UNL1        0.0186
     38 N         141.8078  139.3406  159.1026 N.3     1  UNL1       -0.2974
     39 H         141.2783  140.1698  158.8335 H       1  UNL1        0.1232
@<TRIPOS>BOND
     1    32    31    1
     2    32    33    1
     3    33    34    1
     4    34    30    1
     5    30    24    1
     6    24    25   ar
     7    25    26   ar
     8    26    27   ar
     9    27     1    1
    10     1     2   ar
    11     2     3   ar
    12     3     4   ar
    13     4     5   ar
    14     5     6   ar
    15     6     7    1
    16     7     8    2
    17     7     9   am
    18     9    10    1
    19    10    11    1
    20    11    12    1
    21    12    15    1
    22    15    17    1
    23    17    18   ar
    24    18    19   ar
    25    19    20   ar
    26    20    21    1
    27    20    22   ar
    28    22    23   ar
    29    12    13    1
    30    13    14    1
    31    27    28   ar
    32    28    29   ar
    33    34    35    1
    34    35    36    1
    35    36    37    1
    36    36    38    1
    37    38    32    1
    38    29    24   ar
    39     6     1   ar
    40    14     9    1
    41    23    17   ar
    42    15    16    1
    43    38    39    1
@<TRIPOS>MOLECULE
*****
 39 43 0 0 0
SMALL
GASTEIGER

@<TRIPOS>ATOM
      1 C         140.2948  140.0476  167.2435 C.ar    1  UNL1        0.0222
      2 C         139.4155  140.1487  168.4545 C.ar    1  UNL1        0.0032
      3 C         140.0013  140.5525  169.7751 C.ar    1  UNL1        0.0207
      4 C         141.4664  140.8552  169.8845 C.ar    1  UNL1        0.0990
      5 N         142.3456  140.7542  168.6735 N.ar    1  UNL1       -0.2393
      6 C         141.7598  140.3503  167.3529 C.ar    1  UNL1        0.1346
      7 C         142.6392  140.2492  166.1419 C.2     1  UNL1        0.2668
      8 O         143.5163  139.0476  165.9500 O.2     1  UNL1       -0.2683
      9 N         142.6414  141.3498  165.1227 N.am    1  UNL1       -0.2747
     10 C         141.7643  142.5514  165.3145 C.3     1  UNL1        0.0955
     11 C         141.7665  143.6519  164.2953 C.3     1  UNL1        0.0410
     12 C         142.6459  143.5509  163.0842 C.3     1  UNL1        0.0724
     13 C         143.5229  142.3492  162.8924 C.3     1  UNL1        0.0410
     14 C         143.5207  141.2487  163.9117 C.3     1  UNL1        0.0955
     15 N         142.6481  144.6514  162.0650 N.pl3   1  UNL1       -0.3339
     16 H         143.1146  145.4972  162.2549 H       1  UNL1        0.1468
     17 C         141.9394  144.4632  160.7564 C.ar    1  UNL1        0.0447
     18 C         142.2804  143.2945  159.8802 C.ar    1  UNL1        0.0166
     19 C         141.5717  143.1063  158.5716 C.ar    1  UNL1        0.0309
     20 C         140.5221  144.0867  158.1393 C.ar    1  UNL1        0.1402
     21 F         139.8135  143.8985  156.8307 F       1  UNL1       -0.2042
     22 C         140.1812  145.2554  159.0155 C.ar    1  UNL1        0.0309
     23 C         140.8898  145.4436  160.3241 C.ar    1  UNL1        0.0166
     24 C         138.5375  138.8361  163.2819 C.ar    1  UNL1       -0.0061
     25 C         139.4208  137.8844  164.0331 C.ar    1  UNL1       -0.0029
     26 C         140.0065  138.2882  165.3536 C.ar    1  UNL1       -0.0002
     27 C         139.7091  139.6437  165.9229 C.ar    1  UNL1        0.0016
     28 C         138.8259  140.5954  165.1717 C.ar    1  UNL1       -0.0002
     29 C         138.2401  140.1916  163.8512 C.ar    1  UNL1       -0.0029
     30 C         137.9518  138.4323  161.9613 C.3     1  UNL1        0.0992
     31 C         137.7392  141.4647  157.7472 C.3     1  UNL1        0.0186
     32 C         138.4590  140.4445  158.5785 C.3     1  UNL1        0.0702
     33 C         137.8455  139.9485  159.8542 C.3     1  UNL1        0.0882
     34 N         138.5653  138.9283  160.6855 N.3     1  UNL1       -0.2666
     35 C         139.8986  138.4042  160.2411 C.3     1  UNL1        0.0882
     36 C         140.5121  138.9002  158.9654 C.3     1  UNL1        0.0702
     37 C         141.8455  138.3761  158.5209 C.3     1  UNL1        0.0186
     38 N         139.7923  139.9204  158.1341 N.3     1  UNL1       -0.2974
     39 H         139.6531  139.5046  157.2131 H       1  UNL1        0.1232
@<TRIPOS>BOND
     1    32    31    1
     2    32    33    1
     3    33    34    1
     4    34    30    1
     5    30    24    1
     6    24    25   ar
     7    25    26   ar
     8    26    27   ar
     9    27     1    1
    10     1     2   ar
    11     2     3   ar
    12     3     4   ar
    13     4     5   ar
    14     5     6   ar
    15     6     7    1
    16     7     8    2
    17     7     9   am
    18     9    10    1
    19    10    11    1
    20    11    12    1
    21    12    15    1
    22    15    17    1
    23    17    18   ar
    24    18    19   ar
    25    19    20   ar
    26    20    21    1
    27    20    22   ar
    28    22    23   ar
    29    12    13    1
    30    13    14    1
    31    27    28   ar
    32    28    29   ar
    33    34    35    1
    34    35    36    1
    35    36    37    1
    36    36    38    1
    37    38    32    1
    38    29    24   ar
    39     6     1   ar
    40    14     9    1
    41    23    17   ar
    42    15    16    1
    43    38    39    1
@<TRIPOS>MOLECULE
*****
 39 43 0 0 0
SMALL
GASTEIGER

@<TRIPOS>ATOM
      1 C         144.1453  141.9889  157.5739 C.ar    1  UNL1        0.0222
      2 C         145.4788  142.5346  157.1568 C.ar    1  UNL1        0.0032
      3 C         146.3769  141.7238  156.2703 C.ar    1  UNL1        0.0207
      4 C         145.9415  140.3672  155.8008 C.ar    1  UNL1        0.0990
      5 N         144.6080  139.8216  156.2179 N.ar    1  UNL1       -0.2393
      6 C         143.7099  140.6324  157.1045 C.ar    1  UNL1        0.1346
      7 C         142.3763  140.0867  157.5216 C.2     1  UNL1        0.2668
      8 O         141.1848  140.2519  156.6254 O.2     1  UNL1       -0.2683
      9 N         142.2343  139.3759  158.8347 N.am    1  UNL1       -0.2747
     10 C         143.4257  139.2108  159.7309 C.3     1  UNL1        0.0955
     11 C         143.2837  138.4999  161.0441 C.3     1  UNL1        0.0410
     12 C         141.9501  137.9542  161.4612 C.3     1  UNL1        0.0724
     13 C         140.7587  138.1194  160.5650 C.3     1  UNL1        0.0410
     14 C         140.9008  138.8303  159.2518 C.3     1  UNL1        0.0955
     15 N         141.8081  137.2434  162.7744 N.pl3   1  UNL1       -0.3339
     16 H         142.2243  136.3607  162.9039 H       1  UNL1        0.1468
     17 C         141.0319  137.8776  163.8904 C.ar    1  UNL1        0.0447
     18 C         139.5525  137.6540  163.9965 C.ar    1  UNL1        0.0166
     19 C         138.7763  138.2881  165.1125 C.ar    1  UNL1        0.0309
     20 C         139.4795  139.1458  166.1223 C.ar    1  UNL1        0.1402
     21 F         138.7034  139.7800  167.2383 F       1  UNL1       -0.2042
     22 C         140.9590  139.3694  166.0162 C.ar    1  UNL1        0.0309
     23 C         141.7351  138.7353  164.9002 C.ar    1  UNL1        0.0166
     24 C         141.4509  144.4214  160.2335 C.ar    1  UNL1       -0.0061
     25 C         141.2482  144.4344  158.7472 C.ar    1  UNL1       -0.0029
     26 C         142.1463  143.6235  157.8607 C.ar    1  UNL1       -0.0002
     27 C         143.2471  142.7997  158.4604 C.ar    1  UNL1        0.0016
     28 C         143.4498  142.7868  159.9466 C.ar    1  UNL1       -0.0002
     29 C         142.5517  143.5976  160.8331 C.ar    1  UNL1       -0.0029
     30 C         140.5528  145.2322  161.1200 C.3     1  UNL1        0.0992
     31 C         138.4729  145.0754  165.8792 C.3     1  UNL1        0.0186
     32 C         138.6486  144.4708  164.5177 C.3     1  UNL1        0.0702
     33 C         139.5128  145.1538  163.4996 C.3     1  UNL1        0.0882
     34 N         139.6885  144.5491  162.1381 N.3     1  UNL1       -0.2666
     35 C         138.9999  143.2616  161.7948 C.3     1  UNL1        0.0882
     36 C         138.1357  142.5786  162.8129 C.3     1  UNL1        0.0702
     37 C         137.4471  141.2909  162.4696 C.3     1  UNL1        0.0186
     38 N         137.9600  143.1832  164.1743 N.3     1  UNL1       -0.2974
     39 H         138.2812  142.4886  164.8487 H       1  UNL1        0.1232
@<TRIPOS>BOND
     1    32    31    1
     2    32    33    1
     3    33    34    1
     4    34    30    1
     5    30    24    1
     6    24    25   ar
     7    25    26   ar
     8    26    27   ar
     9    27     1    1
    10     1     2   ar
    11     2     3   ar
    12     3     4   ar
    13     4     5   ar
    14     5     6   ar
    15     6     7    1
    16     7     8    2
    17     7     9   am
    18     9    10    1
    19    10    11    1
    20    11    12    1
    21    12    15    1
    22    15    17    1
    23    17    18   ar
    24    18    19   ar
    25    19    20   ar
    26    20    21    1
    27    20    22   ar
    28    22    23   ar
    29    12    13    1
    30    13    14    1
    31    27    28   ar
    32    28    29   ar
    33    34    35    1
    34    35    36    1
    35    36    37    1
    36    36    38    1
    37    38    32    1
    38    29    24   ar
    39     6     1   ar
    40    14     9    1
    41    23    17   ar
    42    15    16    1
    43    38    39    1
@<TRIPOS>MOLECULE
*****
 39 43 0 0 0
SMALL
GASTEIGER

@<TRIPOS>ATOM
      1 C         140.0598  140.7270  168.0557 C.ar    1  UNL1        0.0222
      2 C         139.1651  140.3669  169.2045 C.ar    1  UNL1        0.0032
      3 C         139.2028  141.1762  170.4669 C.ar    1  UNL1        0.0207
      4 C         140.1353  142.3457  170.5805 C.ar    1  UNL1        0.0990
      5 N         141.0300  142.7058  169.4317 N.ar    1  UNL1       -0.2393
      6 C         140.9923  141.8965  168.1693 C.ar    1  UNL1        0.1346
      7 C         141.8870  142.2567  167.0204 C.2     1  UNL1        0.2668
      8 O         143.3308  141.8503  167.0383 O.2     1  UNL1       -0.2683
      9 N         141.3380  143.0232  165.8539 N.am    1  UNL1       -0.2747
     10 C         139.8942  143.4296  165.8360 C.3     1  UNL1        0.0955
     11 C         139.3452  144.1961  164.6694 C.3     1  UNL1        0.0410
     12 C         140.2400  144.5563  163.5206 C.3     1  UNL1        0.0724
     13 C         141.6838  144.1499  163.5385 C.3     1  UNL1        0.0410
     14 C         142.2328  143.3833  164.7051 C.3     1  UNL1        0.0955
     15 N         139.6909  145.3228  162.3540 N.pl3   1  UNL1       -0.3339
     16 H         139.2668  146.1997  162.4969 H       1  UNL1        0.1468
     17 C         139.7881  144.7533  160.9698 C.ar    1  UNL1        0.0447
     18 C         140.3726  145.5755  159.8598 C.ar    1  UNL1        0.0166
     19 C         140.4698  145.0060  158.4755 C.ar    1  UNL1        0.0309
     20 C         139.9823  143.6142  158.2012 C.ar    1  UNL1        0.1402
     21 F         140.0795  143.0447  156.8169 F       1  UNL1       -0.2042
     22 C         139.3978  142.7920  159.3112 C.ar    1  UNL1        0.0309
     23 C         139.3006  143.3615  160.6955 C.ar    1  UNL1        0.0166
     24 C         139.9466  138.2991  164.2686 C.ar    1  UNL1       -0.0061
     25 C         141.2006  138.3490  165.0903 C.ar    1  UNL1       -0.0029
     26 C         141.2383  139.1583  166.3527 C.ar    1  UNL1       -0.0002
     27 C         140.0221  139.9177  166.7933 C.ar    1  UNL1        0.0016
     28 C         138.7682  139.8679  165.9716 C.ar    1  UNL1       -0.0002
     29 C         138.7305  139.0586  164.7092 C.ar    1  UNL1       -0.0029
     30 C         139.9089  137.4898  163.0062 C.3     1  UNL1        0.0992
     31 C         139.3465  139.1585  158.1175 C.3     1  UNL1        0.0186
     32 C         140.2242  138.8742  159.3002 C.3     1  UNL1        0.0702
     33 C         139.6277  138.3242  160.5618 C.3     1  UNL1        0.0882
     34 N         140.5054  138.0399  161.7445 N.3     1  UNL1       -0.2666
     35 C         141.9796  138.3056  161.6657 C.3     1  UNL1        0.0882
     36 C         142.5760  138.8557  160.4041 C.3     1  UNL1        0.0702
     37 C         144.0502  139.1214  160.3251 C.3     1  UNL1        0.0186
     38 N         141.6983  139.1400  159.2213 N.3     1  UNL1       -0.2974
     39 H         142.0572  138.5811  158.4472 H       1  UNL1        0.1232
@<TRIPOS>BOND
     1    32    31    1
     2    32    33    1
     3    33    34    1
     4    34    30    1
     5    30    24    1
     6    24    25   ar
     7    25    26   ar
     8    26    27   ar
     9    27     1    1
    10     1     2   ar
    11     2     3   ar
    12     3     4   ar
    13     4     5   ar
    14     5     6   ar
    15     6     7    1
    16     7     8    2
    17     7     9   am
    18     9    10    1
    19    10    11    1
    20    11    12    1
    21    12    15    1
    22    15    17    1
    23    17    18   ar
    24    18    19   ar
    25    19    20   ar
    26    20    21    1
    27    20    22   ar
    28    22    23   ar
    29    12    13    1
    30    13    14    1
    31    27    28   ar
    32    28    29   ar
    33    34    35    1
    34    35    36    1
    35    36    37    1
    36    36    38    1
    37    38    32    1
    38    29    24   ar
    39     6     1   ar
    40    14     9    1
    41    23    17   ar
    42    15    16    1
    43    38    39    1
