@<TRIPOS>MOLECULE
*****
 27 30 0 0 0
SMALL
GASTEIGER

@<TRIPOS>ATOM
      1 C         139.5535  139.4225  165.5703 C.ar    1  UNL1        0.1035
      2 C         139.1786  137.9766  165.4333 C.ar    1  UNL1        0.1197
      3 N         138.7799  137.7343  164.0077 N.ar    1  UNL1       -0.2234
      4 C         138.9085  139.0305  163.2637 C.ar    1  UNL1        0.1639
      5 C         138.6519  139.3954  161.8316 C.ar    1  UNL1        0.0404
      6 C         138.8735  140.8037  161.3653 C.ar    1  UNL1        0.0240
      7 C         139.3517  141.8471  162.3311 C.ar    1  UNL1        0.1016
      8 N         139.6082  141.4821  163.7632 N.ar    1  UNL1       -0.1638
      9 N         139.3866  140.0738  164.2295 N.ar    1  UNL1       -0.2107
     10 C         140.9365  141.4504  169.3420 C.ar    1  UNL1        0.1807
     11 C         139.6981  140.6042  169.3562 C.ar    1  UNL1        0.0520
     12 C         139.2371  139.9282  168.0990 C.ar    1  UNL1        0.0060
     13 C         140.0145  140.0985  166.8276 C.ar    1  UNL1        0.0196
     14 C         141.2530  140.9447  166.8133 C.ar    1  UNL1        0.0060
     15 C         141.7139  141.6207  168.0706 C.ar    1  UNL1        0.0520
     16 C         142.6908  142.8860  170.6114 C.3     1  UNL1        0.3254
     17 S         141.3975  142.1264  170.5992 S.O     1  UNL1        0.0581
     18 O         140.5651  142.0426  171.8442 O.co2   1  UNL1       -0.6774
     19 C         139.5733  143.2555  161.8647 C.ar    1  UNL1        0.0237
     20 C         139.1259  144.4066  162.7160 C.ar    1  UNL1        0.0018
     21 C         139.3475  145.8150  162.2496 C.ar    1  UNL1        0.0045
     22 C         140.0165  146.0721  160.9319 C.ar    1  UNL1        0.0519
     23 C         140.4639  144.9209  160.0806 C.ar    1  UNL1        0.1808
     24 C         140.2423  143.5127  160.5470 C.ar    1  UNL1        0.0535
     25 S         141.1330  145.1781  158.7630 S.O     1  UNL1        0.0581
     26 C         140.3922  145.8944  157.6729 C.3     1  UNL1        0.3254
     27 O         142.5427  144.7191  158.5354 O.co2   1  UNL1       -0.6774
@<TRIPOS>UNITY_ATOM_ATTR
17 1
charge 1
18 1
charge -1
25 1
charge 1
27 1
charge -1
@<TRIPOS>BOND
     1    16    17    1
     2    17    18    2
     3    17    10    1
     4    10    11   ar
     5    11    12   ar
     6    12    13   ar
     7    13     1    1
     8     1     2   ar
     9     2     3   ar
    10     3     4   ar
    11     4     5   ar
    12     5     6   ar
    13     6     7   ar
    14     7    19    1
    15    19    20   ar
    16    20    21   ar
    17    21    22   ar
    18    22    23   ar
    19    23    25    1
    20    25    26    1
    21    25    27    2
    22    23    24   ar
    23     7     8   ar
    24     8     9   ar
    25    13    14   ar
    26    14    15   ar
    27    15    10   ar
    28     9     1   ar
    29     9     4   ar
    30    24    19   ar
@<TRIPOS>MOLECULE
*****
 27 30 0 0 0
SMALL
GASTEIGER

@<TRIPOS>ATOM
      1 C         141.0210  144.3217  161.1493 C.ar    1  UNL1        0.1035
      2 C         140.1297  145.4614  160.7537 C.ar    1  UNL1        0.1197
      3 N         139.2977  145.8341  161.9449 N.ar    1  UNL1       -0.2234
      4 C         139.6748  144.9247  163.0766 C.ar    1  UNL1        0.1639
      5 C         139.1860  144.8271  164.4913 C.ar    1  UNL1        0.0404
      6 C         139.7622  143.7947  165.4144 C.ar    1  UNL1        0.0240
      7 C         140.8274  142.8599  164.9227 C.ar    1  UNL1        0.1016
      8 N         141.3162  142.9576  163.5080 N.ar    1  UNL1       -0.1638
      9 N         140.7399  143.9900  162.5849 N.ar    1  UNL1       -0.2107
     10 C         144.0132  142.2595  158.4952 C.ar    1  UNL1        0.1807
     11 C         144.3406  142.5165  159.9362 C.ar    1  UNL1        0.0520
     12 C         143.3432  143.2039  160.8209 C.ar    1  UNL1        0.0060
     13 C         142.0184  143.6343  160.2646 C.ar    1  UNL1        0.0196
     14 C         141.6910  143.3772  158.8235 C.ar    1  UNL1        0.0060
     15 C         142.6884  142.6898  157.9388 C.ar    1  UNL1        0.0520
     16 C         146.1503  142.3485  157.0203 C.3     1  UNL1        0.3254
     17 S         145.0106  141.5720  157.6105 S.O     1  UNL1        0.0581
     18 O         144.8683  140.1082  157.3160 O.co2   1  UNL1       -0.6774
     19 C         141.4037  141.8275  165.8458 C.ar    1  UNL1        0.0237
     20 C         141.4569  140.3894  165.4228 C.ar    1  UNL1        0.0018
     21 C         142.0332  139.3569  166.3459 C.ar    1  UNL1        0.0045
     22 C         142.5562  139.7627  167.6920 C.ar    1  UNL1        0.0519
     23 C         142.5029  141.2009  168.1149 C.ar    1  UNL1        0.1808
     24 C         141.9267  142.2333  167.1918 C.ar    1  UNL1        0.0535
     25 S         143.0260  141.6067  169.4609 S.O     1  UNL1        0.0581
     26 C         142.4281  141.0207  170.7057 C.3     1  UNL1        0.3254
     27 O         144.1468  142.5984  169.5623 O.co2   1  UNL1       -0.6774
@<TRIPOS>UNITY_ATOM_ATTR
17 1
charge 1
18 1
charge -1
25 1
charge 1
27 1
charge -1
@<TRIPOS>BOND
     1    16    17    1
     2    17    18    2
     3    17    10    1
     4    10    11   ar
     5    11    12   ar
     6    12    13   ar
     7    13     1    1
     8     1     2   ar
     9     2     3   ar
    10     3     4   ar
    11     4     5   ar
    12     5     6   ar
    13     6     7   ar
    14     7    19    1
    15    19    20   ar
    16    20    21   ar
    17    21    22   ar
    18    22    23   ar
    19    23    25    1
    20    25    26    1
    21    25    27    2
    22    23    24   ar
    23     7     8   ar
    24     8     9   ar
    25    13    14   ar
    26    14    15   ar
    27    15    10   ar
    28     9     1   ar
    29     9     4   ar
    30    24    19   ar
@<TRIPOS>MOLECULE
*****
 27 30 0 0 0
SMALL
GASTEIGER

@<TRIPOS>ATOM
      1 C         140.7707  144.4761  160.6628 C.ar    1  UNL1        0.1035
      2 C         140.3174  145.9022  160.5588 C.ar    1  UNL1        0.1197
      3 N         139.1863  146.1005  161.5238 N.ar    1  UNL1       -0.2234
      4 C         138.9405  144.7971  162.2243 C.ar    1  UNL1        0.1639
      5 C         137.9516  144.3947  163.2779 C.ar    1  UNL1        0.0404
      6 C         137.9419  142.9883  163.7993 C.ar    1  UNL1        0.0240
      7 C         138.9211  141.9843  163.2672 C.ar    1  UNL1        0.1016
      8 N         139.9100  142.3867  162.2136 N.ar    1  UNL1       -0.1638
      9 N         139.9197  143.7931  161.6921 N.ar    1  UNL1       -0.2107
     10 C         144.0990  142.5795  158.3016 C.ar    1  UNL1        0.1807
     11 C         142.9538  143.2360  157.5893 C.ar    1  UNL1        0.0520
     12 C         141.8443  143.8682  158.3764 C.ar    1  UNL1        0.0060
     13 C         141.8801  143.8439  159.8757 C.ar    1  UNL1        0.0196
     14 C         143.0254  143.1873  160.5880 C.ar    1  UNL1        0.0060
     15 C         144.1348  142.5551  159.8009 C.ar    1  UNL1        0.0520
     16 C         144.9747  140.6511  156.7967 C.3     1  UNL1        0.3254
     17 S         145.2084  141.9473  157.5144 S.O     1  UNL1        0.0581
     18 O         146.5516  142.6114  157.4452 O.co2   1  UNL1       -0.6774
     19 C         138.9113  140.5779  163.7887 C.ar    1  UNL1        0.0237
     20 C         139.3520  139.4478  162.9063 C.ar    1  UNL1        0.0018
     21 C         139.3422  138.0413  163.4278 C.ar    1  UNL1        0.0045
     22 C         138.8918  137.7651  164.8317 C.ar    1  UNL1        0.0519
     23 C         138.4512  138.8953  165.7141 C.ar    1  UNL1        0.1808
     24 C         138.4609  140.3017  165.1925 C.ar    1  UNL1        0.0535
     25 S         138.0008  138.6191  167.1179 S.O     1  UNL1        0.0581
     26 C         136.9918  137.5414  167.3835 C.3     1  UNL1        0.3254
     27 O         138.5593  139.4206  168.2562 O.co2   1  UNL1       -0.6774
@<TRIPOS>UNITY_ATOM_ATTR
17 1
charge 1
18 1
charge -1
25 1
charge 1
27 1
charge -1
@<TRIPOS>BOND
     1    16    17    1
     2    17    18    2
     3    17    10    1
     4    10    11   ar
     5    11    12   ar
     6    12    13   ar
     7    13     1    1
     8     1     2   ar
     9     2     3   ar
    10     3     4   ar
    11     4     5   ar
    12     5     6   ar
    13     6     7   ar
    14     7    19    1
    15    19    20   ar
    16    20    21   ar
    17    21    22   ar
    18    22    23   ar
    19    23    25    1
    20    25    26    1
    21    25    27    2
    22    23    24   ar
    23     7     8   ar
    24     8     9   ar
    25    13    14   ar
    26    14    15   ar
    27    15    10   ar
    28     9     1   ar
    29     9     4   ar
    30    24    19   ar
@<TRIPOS>MOLECULE
*****
 27 30 0 0 0
SMALL
GASTEIGER

@<TRIPOS>ATOM
      1 C         139.0687  139.2623  166.5081 C.ar    1  UNL1        0.1035
      2 C         138.0323  138.2388  166.8663 C.ar    1  UNL1        0.1197
      3 N         137.8438  137.3363  165.6831 N.ar    1  UNL1       -0.2234
      4 C         138.7637  137.8020  164.5936 C.ar    1  UNL1        0.1639
      5 C         139.0097  137.2960  163.2032 C.ar    1  UNL1        0.0404
      6 C         140.0129  137.9803  162.3227 C.ar    1  UNL1        0.0240
      7 C         140.7699  139.1706  162.8326 C.ar    1  UNL1        0.1016
      8 N         140.5238  139.6766  164.2230 N.ar    1  UNL1       -0.1638
      9 N         139.5207  138.9923  165.1035 N.ar    1  UNL1       -0.2107
     10 C         140.5601  142.5632  169.1783 C.ar    1  UNL1        0.1807
     11 C         140.1137  141.2608  169.7737 C.ar    1  UNL1        0.0520
     12 C         139.6166  140.1605  168.8836 C.ar    1  UNL1        0.0060
     13 C         139.5658  140.3625  167.3982 C.ar    1  UNL1        0.0196
     14 C         140.0122  141.6650  166.8028 C.ar    1  UNL1        0.0060
     15 C         140.5094  142.7653  167.6929 C.ar    1  UNL1        0.0520
     16 C         142.4145  143.5626  170.6990 C.3     1  UNL1        0.3254
     17 S         141.0573  143.6635  170.0684 S.O     1  UNL1        0.0581
     18 O         140.1971  144.8646  170.3278 O.co2   1  UNL1       -0.6774
     19 C         141.7731  139.8549  161.9519 C.ar    1  UNL1        0.0237
     20 C         141.7822  139.5866  160.4762 C.ar    1  UNL1        0.0018
     21 C         142.7853  140.2709  159.5956 C.ar    1  UNL1        0.0045
     22 C         143.7794  141.2235  160.1908 C.ar    1  UNL1        0.0519
     23 C         143.7703  141.4919  161.6666 C.ar    1  UNL1        0.1808
     24 C         142.7672  140.8076  162.5471 C.ar    1  UNL1        0.0535
     25 S         144.7644  142.4445  162.2618 S.O     1  UNL1        0.0581
     26 C         145.8272  141.9362  163.1904 C.3     1  UNL1        0.3254
     27 O         144.6958  143.9053  161.9284 O.co2   1  UNL1       -0.6774
@<TRIPOS>UNITY_ATOM_ATTR
17 1
charge 1
18 1
charge -1
25 1
charge 1
27 1
charge -1
@<TRIPOS>BOND
     1    16    17    1
     2    17    18    2
     3    17    10    1
     4    10    11   ar
     5    11    12   ar
     6    12    13   ar
     7    13     1    1
     8     1     2   ar
     9     2     3   ar
    10     3     4   ar
    11     4     5   ar
    12     5     6   ar
    13     6     7   ar
    14     7    19    1
    15    19    20   ar
    16    20    21   ar
    17    21    22   ar
    18    22    23   ar
    19    23    25    1
    20    25    26    1
    21    25    27    2
    22    23    24   ar
    23     7     8   ar
    24     8     9   ar
    25    13    14   ar
    26    14    15   ar
    27    15    10   ar
    28     9     1   ar
    29     9     4   ar
    30    24    19   ar
@<TRIPOS>MOLECULE
*****
 27 30 0 0 0
SMALL
GASTEIGER

@<TRIPOS>ATOM
      1 C         139.8181  143.2399  164.8778 C.ar    1  UNL1        0.1035
      2 C         138.7602  144.3023  164.8317 C.ar    1  UNL1        0.1197
      3 N         138.1284  144.2685  163.4717 N.ar    1  UNL1       -0.2234
      4 C         138.7958  143.1852  162.6773 C.ar    1  UNL1        0.1639
      5 C         138.5875  142.6955  161.2749 C.ar    1  UNL1        0.0404
      6 C         139.4235  141.5701  160.7416 C.ar    1  UNL1        0.0240
      7 C         140.4678  140.9343  161.6107 C.ar    1  UNL1        0.1016
      8 N         140.6761  141.4240  163.0130 N.ar    1  UNL1       -0.1638
      9 N         139.8401  142.5495  163.5464 N.ar    1  UNL1       -0.2107
     10 C         142.4619  142.2905  168.3935 C.ar    1  UNL1        0.1807
     11 C         141.0239  142.6564  168.6136 C.ar    1  UNL1        0.0520
     12 C         140.1427  142.9729  167.4417 C.ar    1  UNL1        0.0060
     13 C         140.6993  142.9234  166.0497 C.ar    1  UNL1        0.0196
     14 C         142.1373  142.5575  165.8296 C.ar    1  UNL1        0.0060
     15 C         143.0186  142.2410  167.0015 C.ar    1  UNL1        0.0520
     16 C         143.1395  140.7028  170.3352 C.3     1  UNL1        0.3254
     17 S         143.3431  141.9740  169.5654 S.O     1  UNL1        0.0581
     18 O         144.4278  142.9288  169.9674 O.co2   1  UNL1       -0.6774
     19 C         141.3038  139.8089  161.0772 C.ar    1  UNL1        0.0237
     20 C         142.0041  138.8804  162.0246 C.ar    1  UNL1        0.0018
     21 C         142.8401  137.7550  161.4912 C.ar    1  UNL1        0.0045
     22 C         142.9758  137.5580  160.0104 C.ar    1  UNL1        0.0519
     23 C         142.2755  138.4865  159.0630 C.ar    1  UNL1        0.1808
     24 C         141.4395  139.6119  159.5964 C.ar    1  UNL1        0.0535
     25 S         142.4112  138.2896  157.5822 S.O     1  UNL1        0.0581
     26 C         141.2711  137.7154  156.7944 C.3     1  UNL1        0.3254
     27 O         143.6869  138.6667  156.8892 O.co2   1  UNL1       -0.6774
@<TRIPOS>UNITY_ATOM_ATTR
17 1
charge 1
18 1
charge -1
25 1
charge 1
27 1
charge -1
@<TRIPOS>BOND
     1    16    17    1
     2    17    18    2
     3    17    10    1
     4    10    11   ar
     5    11    12   ar
     6    12    13   ar
     7    13     1    1
     8     1     2   ar
     9     2     3   ar
    10     3     4   ar
    11     4     5   ar
    12     5     6   ar
    13     6     7   ar
    14     7    19    1
    15    19    20   ar
    16    20    21   ar
    17    21    22   ar
    18    22    23   ar
    19    23    25    1
    20    25    26    1
    21    25    27    2
    22    23    24   ar
    23     7     8   ar
    24     8     9   ar
    25    13    14   ar
    26    14    15   ar
    27    15    10   ar
    28     9     1   ar
    29     9     4   ar
    30    24    19   ar
@<TRIPOS>MOLECULE
*****
 27 30 0 0 0
SMALL
GASTEIGER

@<TRIPOS>ATOM
      1 C         140.4864  143.7612  161.4967 C.ar    1  UNL1        0.1035
      2 C         139.6790  144.9486  161.0630 C.ar    1  UNL1        0.1197
      3 N         138.9937  145.5101  162.2733 N.ar    1  UNL1       -0.2234
      4 C         139.3775  144.6698  163.4551 C.ar    1  UNL1        0.1639
      5 C         139.0061  144.7492  164.9062 C.ar    1  UNL1        0.0404
      6 C         139.5574  143.7477  165.8773 C.ar    1  UNL1        0.0240
      7 C         140.4799  142.6667  165.3972 C.ar    1  UNL1        0.1016
      8 N         140.8513  142.5873  163.9461 N.ar    1  UNL1       -0.1638
      9 N         140.3001  143.5888  162.9751 N.ar    1  UNL1       -0.2107
     10 C         143.0225  141.1705  158.8307 C.ar    1  UNL1        0.1807
     11 C         141.5430  141.2617  158.6008 C.ar    1  UNL1        0.0520
     12 C         140.6977  142.1253  159.4894 C.ar    1  UNL1        0.0060
     13 C         141.3317  142.8976  160.6080 C.ar    1  UNL1        0.0196
     14 C         142.8112  142.8064  160.8380 C.ar    1  UNL1        0.0060
     15 C         143.6566  141.9429  159.9493 C.ar    1  UNL1        0.0520
     16 C         144.8569  140.9357  157.0060 C.3     1  UNL1        0.3254
     17 S         143.8678  140.3070  157.9421 S.O     1  UNL1        0.0581
     18 O         143.7239  138.8147  157.9895 O.co2   1  UNL1       -0.6774
     19 C         141.0311  141.6652  166.3684 C.ar    1  UNL1        0.0237
     20 C         142.0594  140.6705  165.9175 C.ar    1  UNL1        0.0018
     21 C         142.6106  139.6689  166.8886 C.ar    1  UNL1        0.0045
     22 C         142.1335  139.6621  168.3107 C.ar    1  UNL1        0.0519
     23 C         141.1052  140.6568  168.7617 C.ar    1  UNL1        0.1808
     24 C         140.5541  141.6583  167.7905 C.ar    1  UNL1        0.0535
     25 S         140.6282  140.6500  170.1838 S.O     1  UNL1        0.0581
     26 C         140.9840  141.7834  171.0997 C.3     1  UNL1        0.3254
     27 O         139.7953  139.5098  170.6899 O.co2   1  UNL1       -0.6774
@<TRIPOS>UNITY_ATOM_ATTR
17 1
charge 1
18 1
charge -1
25 1
charge 1
27 1
charge -1
@<TRIPOS>BOND
     1    16    17    1
     2    17    18    2
     3    17    10    1
     4    10    11   ar
     5    11    12   ar
     6    12    13   ar
     7    13     1    1
     8     1     2   ar
     9     2     3   ar
    10     3     4   ar
    11     4     5   ar
    12     5     6   ar
    13     6     7   ar
    14     7    19    1
    15    19    20   ar
    16    20    21   ar
    17    21    22   ar
    18    22    23   ar
    19    23    25    1
    20    25    26    1
    21    25    27    2
    22    23    24   ar
    23     7     8   ar
    24     8     9   ar
    25    13    14   ar
    26    14    15   ar
    27    15    10   ar
    28     9     1   ar
    29     9     4   ar
    30    24    19   ar
@<TRIPOS>MOLECULE
*****
 27 30 0 0 0
SMALL
GASTEIGER

@<TRIPOS>ATOM
      1 C         140.8348  143.3435  160.9409 C.ar    1  UNL1        0.1035
      2 C         140.9499  144.7780  160.5181 C.ar    1  UNL1        0.1197
      3 N         140.5155  145.6366  161.6687 N.ar    1  UNL1       -0.2234
      4 C         140.1318  144.7327  162.8027 C.ar    1  UNL1        0.1639
      5 C         139.6282  145.0171  164.1867 C.ar    1  UNL1        0.0404
      6 C         139.3220  143.8842  165.1208 C.ar    1  UNL1        0.0240
      7 C         139.5194  142.4669  164.6710 C.ar    1  UNL1        0.1016
      8 N         140.0230  142.1825  163.2870 N.ar    1  UNL1       -0.1638
      9 N         140.3292  143.3155  162.3528 N.ar    1  UNL1       -0.2107
     10 C         141.8314  139.7538  158.4167 C.ar    1  UNL1        0.1807
     11 C         140.5378  140.4832  158.2058 C.ar    1  UNL1        0.0520
     12 C         140.2056  141.6798  159.0472 C.ar    1  UNL1        0.0060
     13 C         141.1670  142.1469  160.0995 C.ar    1  UNL1        0.0196
     14 C         142.4607  141.4175  160.3104 C.ar    1  UNL1        0.0060
     15 C         142.7928  140.2209  159.4690 C.ar    1  UNL1        0.0520
     16 C         141.0804  137.6030  157.1676 C.3     1  UNL1        0.3254
     17 S         142.1636  138.5573  157.5753 S.O     1  UNL1        0.0581
     18 O         143.5789  138.3150  157.1416 O.co2   1  UNL1       -0.6774
     19 C         139.2132  141.3340  165.6052 C.ar    1  UNL1        0.0237
     20 C         138.3001  140.2272  165.1680 C.ar    1  UNL1        0.0018
     21 C         137.9938  139.0943  166.1022 C.ar    1  UNL1        0.0045
     22 C         138.6008  139.0682  167.4737 C.ar    1  UNL1        0.0519
     23 C         139.5139  140.1750  167.9109 C.ar    1  UNL1        0.1808
     24 C         139.8201  141.3079  166.9767 C.ar    1  UNL1        0.0535
     25 S         140.1209  140.1489  169.2824 S.O     1  UNL1        0.0581
     26 C         141.6013  140.3225  169.4508 C.3     1  UNL1        0.3254
     27 O         139.2475  139.9493  170.4854 O.co2   1  UNL1       -0.6774
@<TRIPOS>UNITY_ATOM_ATTR
17 1
charge 1
18 1
charge -1
25 1
charge 1
27 1
charge -1
@<TRIPOS>BOND
     1    16    17    1
     2    17    18    2
     3    17    10    1
     4    10    11   ar
     5    11    12   ar
     6    12    13   ar
     7    13     1    1
     8     1     2   ar
     9     2     3   ar
    10     3     4   ar
    11     4     5   ar
    12     5     6   ar
    13     6     7   ar
    14     7    19    1
    15    19    20   ar
    16    20    21   ar
    17    21    22   ar
    18    22    23   ar
    19    23    25    1
    20    25    26    1
    21    25    27    2
    22    23    24   ar
    23     7     8   ar
    24     8     9   ar
    25    13    14   ar
    26    14    15   ar
    27    15    10   ar
    28     9     1   ar
    29     9     4   ar
    30    24    19   ar
@<TRIPOS>MOLECULE
*****
 27 30 0 0 0
SMALL
GASTEIGER

@<TRIPOS>ATOM
      1 C         139.1424  140.1671  161.3590 C.ar    1  UNL1        0.1035
      2 C         138.2010  139.1262  160.8294 C.ar    1  UNL1        0.1197
      3 N         137.9607  138.1220  161.9174 N.ar    1  UNL1       -0.2234
      4 C         138.7535  138.5422  163.1195 C.ar    1  UNL1        0.1639
      5 C         138.9047  137.9373  164.4837 C.ar    1  UNL1        0.0404
      6 C         139.7863  138.5962  165.5028 C.ar    1  UNL1        0.0240
      7 C         140.5166  139.8602  165.1577 C.ar    1  UNL1        0.1016
      8 N         140.3653  140.4652  163.7935 N.ar    1  UNL1       -0.1638
      9 N         139.4838  139.8062  162.7744 N.ar    1  UNL1       -0.2107
     10 C         140.6733  143.7444  159.0987 C.ar    1  UNL1        0.1807
     11 C         139.8276  143.9362  160.3226 C.ar    1  UNL1        0.0520
     12 C         139.3173  142.7438  161.0760 C.ar    1  UNL1        0.0060
     13 C         139.6527  141.3595  160.6056 C.ar    1  UNL1        0.0196
     14 C         140.4985  141.1677  159.3817 C.ar    1  UNL1        0.0060
     15 C         141.0088  142.3602  158.6282 C.ar    1  UNL1        0.0520
     16 C         140.2182  145.9329  157.7745 C.3     1  UNL1        0.3254
     17 S         141.1837  144.9369  158.3453 S.O     1  UNL1        0.0581
     18 O         142.6595  145.1333  158.1628 O.co2   1  UNL1       -0.6774
     19 C         141.3982  140.5192  166.1768 C.ar    1  UNL1        0.0237
     20 C         142.2005  141.7303  165.8036 C.ar    1  UNL1        0.0018
     21 C         143.0821  142.3892  166.8228 C.ar    1  UNL1        0.0045
     22 C         143.1613  141.8370  168.2152 C.ar    1  UNL1        0.0519
     23 C         142.3588  140.6259  168.5884 C.ar    1  UNL1        0.1808
     24 C         141.4773  139.9669  167.5693 C.ar    1  UNL1        0.0535
     25 S         142.4380  140.0736  169.9808 S.O     1  UNL1        0.0581
     26 C         141.9406  140.8864  171.1394 C.3     1  UNL1        0.3254
     27 O         143.0144  138.7088  170.2147 O.co2   1  UNL1       -0.6774
@<TRIPOS>UNITY_ATOM_ATTR
17 1
charge 1
18 1
charge -1
25 1
charge 1
27 1
charge -1
@<TRIPOS>BOND
     1    16    17    1
     2    17    18    2
     3    17    10    1
     4    10    11   ar
     5    11    12   ar
     6    12    13   ar
     7    13     1    1
     8     1     2   ar
     9     2     3   ar
    10     3     4   ar
    11     4     5   ar
    12     5     6   ar
    13     6     7   ar
    14     7    19    1
    15    19    20   ar
    16    20    21   ar
    17    21    22   ar
    18    22    23   ar
    19    23    25    1
    20    25    26    1
    21    25    27    2
    22    23    24   ar
    23     7     8   ar
    24     8     9   ar
    25    13    14   ar
    26    14    15   ar
    27    15    10   ar
    28     9     1   ar
    29     9     4   ar
    30    24    19   ar
@<TRIPOS>MOLECULE
*****
 27 30 0 0 0
SMALL
GASTEIGER

@<TRIPOS>ATOM
      1 C         140.3332  143.1554  160.1434 C.ar    1  UNL1        0.1035
      2 C         140.1887  144.4670  159.4301 C.ar    1  UNL1        0.1197
      3 N         139.8205  145.5084  160.4450 N.ar    1  UNL1       -0.2234
      4 C         139.7375  144.8404  161.7855 C.ar    1  UNL1        0.1639
      5 C         139.4143  145.3685  163.1517 C.ar    1  UNL1        0.0404
      6 C         139.4080  144.4423  164.3316 C.ar    1  UNL1        0.0240
      7 C         139.7249  142.9880  164.1452 C.ar    1  UNL1        0.1016
      8 N         140.0481  142.4600  162.7789 N.ar    1  UNL1       -0.1638
      9 N         140.0544  143.3862  161.5991 N.ar    1  UNL1       -0.2107
     10 C         141.4137  139.2192  158.2489 C.ar    1  UNL1        0.1807
     11 C         142.2773  140.4240  158.0197 C.ar    1  UNL1        0.0520
     12 C         141.9171  141.7361  158.6512 C.ar    1  UNL1        0.0060
     13 C         140.6934  141.8434  159.5119 C.ar    1  UNL1        0.0196
     14 C         139.8297  140.6385  159.7411 C.ar    1  UNL1        0.0060
     15 C         140.1899  139.3264  159.1095 C.ar    1  UNL1        0.0520
     16 C         140.8585  137.2861  156.6042 C.3     1  UNL1        0.3254
     17 S         141.7738  137.9071  157.6173 S.O     1  UNL1        0.0581
     18 O         143.0493  137.2162  157.9990 O.co2   1  UNL1       -0.6774
     19 C         139.7186  142.0618  165.3251 C.ar    1  UNL1        0.0237
     20 C         140.4407  142.4445  166.5829 C.ar    1  UNL1        0.0018
     21 C         140.4344  141.5183  167.7628 C.ar    1  UNL1        0.0045
     22 C         139.7059  140.2094  167.6849 C.ar    1  UNL1        0.0519
     23 C         138.9838  139.8267  166.4270 C.ar    1  UNL1        0.1808
     24 C         138.9901  140.7529  165.2472 C.ar    1  UNL1        0.0535
     25 S         138.2553  138.5178  166.3491 S.O     1  UNL1        0.0581
     26 C         138.6070  137.5262  165.2798 C.3     1  UNL1        0.3254
     27 O         137.1752  138.2004  167.3403 O.co2   1  UNL1       -0.6774
@<TRIPOS>UNITY_ATOM_ATTR
17 1
charge 1
18 1
charge -1
25 1
charge 1
27 1
charge -1
@<TRIPOS>BOND
     1    16    17    1
     2    17    18    2
     3    17    10    1
     4    10    11   ar
     5    11    12   ar
     6    12    13   ar
     7    13     1    1
     8     1     2   ar
     9     2     3   ar
    10     3     4   ar
    11     4     5   ar
    12     5     6   ar
    13     6     7   ar
    14     7    19    1
    15    19    20   ar
    16    20    21   ar
    17    21    22   ar
    18    22    23   ar
    19    23    25    1
    20    25    26    1
    21    25    27    2
    22    23    24   ar
    23     7     8   ar
    24     8     9   ar
    25    13    14   ar
    26    14    15   ar
    27    15    10   ar
    28     9     1   ar
    29     9     4   ar
    30    24    19   ar
