@<TRIPOS>MOLECULE
*****
 34 38 0 0 0
SMALL
GASTEIGER

@<TRIPOS>ATOM
      1 N         138.4496  140.2692  159.3615 N.pl3   1  UNL1       -0.2847
      2 C         138.1024  140.7729  160.7310 C.3     1  UNL1        0.1141
      3 C         138.6451  140.0791  161.9452 C.3     1  UNL1        0.1149
      4 N         139.5349  138.8816  161.7898 N.am    1  UNL1       -0.2760
      5 C         140.0776  138.1879  163.0039 C.2     1  UNL1        0.2257
      6 O         140.9674  136.9904  162.8486 O.2     1  UNL1       -0.2749
      7 C         139.8820  138.3779  160.4202 C.3     1  UNL1        0.1149
      8 C         139.3394  139.0717  159.2061 C.3     1  UNL1        0.1141
      9 C         135.5729  140.0113  155.3813 C.3     1  UNL1        0.0085
     10 C         135.8217  141.4003  154.8726 C.3     1  UNL1        0.0631
     11 C         134.8753  140.9032  153.8204 C.3     1  UNL1        0.0085
     12 C         135.7418  142.6167  153.9986 C.3     1  UNL1        0.1480
     13 O         136.5219  143.8477  154.3533 O.3     1  UNL1       -0.3480
     14 C         137.3820  143.8625  155.5822 C.3     1  UNL1        0.1763
     15 C         137.4618  142.6461  156.4562 C.ar    1  UNL1        0.0530
     16 S         138.2190  142.3667  157.7206 S.2     1  UNL1       -0.0538
     17 C         137.9069  140.9630  158.1473 C.ar    1  UNL1        0.1625
     18 N         136.9568  140.3748  157.1466 N.ar    1  UNL1       -0.2286
     19 C         136.6817  141.4150  156.1015 C.ar    1  UNL1        0.0669
     20 C         139.7304  138.6916  164.3735 C.3     1  UNL1        0.0853
     21 C         138.5866  138.0826  165.1290 C.3     1  UNL1        0.0096
     22 C         138.2394  138.5863  166.4986 C.3     1  UNL1        0.0005
     23 C         139.0361  139.6990  167.1127 C.3     1  UNL1        0.0005
     24 C         140.1799  140.3081  166.3572 C.3     1  UNL1        0.0096
     25 C         140.5271  139.8043  164.9876 C.3     1  UNL1        0.0851
     26 C         141.6709  140.4134  164.2321 C.2     1  UNL1        0.2231
     27 O         141.4512  141.6431  163.4018 O.2     1  UNL1       -0.2751
     28 N         143.0344  139.7927  164.3070 N.am    1  UNL1       -0.2959
     29 H         143.1786  138.9856  164.8520 H       1  UNL1        0.1502
     30 C         144.1782  140.4017  163.5516 C.3     1  UNL1        0.1364
     31 C         145.3367  141.2987  163.2300 C.3     1  UNL1        0.0353
     32 C         144.6176  141.4422  164.5385 C.3     1  UNL1        0.0353
     33 C         144.1360  139.5726  162.3022 C.1     1  UNL1        0.0896
     34 N         144.0938  138.7436  161.0529 N.1     1  UNL1       -0.1943
@<TRIPOS>BOND
     1     9    10    1
     2    10    11    1
     3    10    12    1
     4    12    13    1
     5    13    14    1
     6    14    15    1
     7    15    16   ar
     8    16    17   ar
     9    17     1    1
    10     1     2    1
    11     2     3    1
    12     3     4    1
    13     4     5   am
    14     5     6    2
    15    20     5    1
    16    20    21    1
    17    21    22    1
    18    22    23    1
    19    23    24    1
    20    24    25    1
    21    25    26    1
    22    26    27    2
    23    26    28   am
    24    28    30    1
    25    30    33    1
    26    33    34    3
    27    30    31    1
    28    31    32    1
    29     4     7    1
    30     7     8    1
    31    17    18   ar
    32    18    19   ar
    33    19    10    1
    34    19    15   ar
    35     8     1    1
    36    25    20    1
    37    32    30    1
    38    28    29    1
@<TRIPOS>MOLECULE
*****
 34 38 0 0 0
SMALL
GASTEIGER

@<TRIPOS>ATOM
      1 N         140.5431  144.4193  160.0992 N.pl3   1  UNL1       -0.2847
      2 C         140.3260  142.9708  160.4225 C.3     1  UNL1        0.1141
      3 C         140.1116  142.5436  161.8443 C.3     1  UNL1        0.1149
      4 N         140.1143  143.5649  162.9428 N.am    1  UNL1       -0.2760
      5 C         139.8999  143.1377  164.3646 C.2     1  UNL1        0.2257
      6 O         139.9027  144.1591  165.4632 O.2     1  UNL1       -0.2749
      7 C         140.3315  145.0134  162.6196 C.3     1  UNL1        0.1149
      8 C         140.5459  145.4406  161.1977 C.3     1  UNL1        0.1141
      9 C         139.1703  147.3605  156.4050 C.3     1  UNL1        0.0085
     10 C         140.1605  146.8712  155.3900 C.3     1  UNL1        0.0631
     11 C         139.4459  147.9097  154.5771 C.3     1  UNL1        0.0085
     12 C         140.9025  146.7425  154.0928 C.3     1  UNL1        0.1480
     13 O         142.0152  145.7452  153.9609 O.3     1  UNL1       -0.3480
     14 C         142.3858  144.8766  155.1263 C.3     1  UNL1        0.1763
     15 C         141.6438  145.0053  156.4235 C.ar    1  UNL1        0.0530
     16 S         141.7837  144.2908  157.7350 S.2     1  UNL1       -0.0538
     17 C         140.7575  144.8465  158.6774 C.ar    1  UNL1        0.1625
     18 N         139.9834  145.9044  157.9483 N.ar    1  UNL1       -0.2286
     19 C         140.5312  146.0026  156.5554 C.ar    1  UNL1        0.0669
     20 C         139.6827  141.6892  164.6879 C.3     1  UNL1        0.0853
     21 C         138.2890  141.1433  164.7856 C.3     1  UNL1        0.0096
     22 C         138.0718  139.6948  165.1089 C.3     1  UNL1        0.0005
     23 C         139.2483  138.7921  165.3345 C.3     1  UNL1        0.0005
     24 C         140.6420  139.3379  165.2368 C.3     1  UNL1        0.0096
     25 C         140.8593  140.7865  164.9135 C.3     1  UNL1        0.0851
     26 C         142.2530  141.3323  164.8158 C.2     1  UNL1        0.2231
     27 O         142.8462  142.0849  165.9697 O.2     1  UNL1       -0.2751
     28 N         143.0535  141.1255  163.5642 N.am    1  UNL1       -0.2959
     29 H         142.6641  140.6315  162.8069 H       1  UNL1        0.1502
     30 C         144.4472  141.6713  163.4666 C.3     1  UNL1        0.1364
     31 C         145.9405  141.7527  163.5827 C.3     1  UNL1        0.0353
     32 C         145.2178  140.5235  164.0482 C.3     1  UNL1        0.0353
     33 C         144.1605  143.0088  162.8509 C.1     1  UNL1        0.0896
     34 N         143.8740  144.3463  162.2354 N.1     1  UNL1       -0.1943
@<TRIPOS>BOND
     1     9    10    1
     2    10    11    1
     3    10    12    1
     4    12    13    1
     5    13    14    1
     6    14    15    1
     7    15    16   ar
     8    16    17   ar
     9    17     1    1
    10     1     2    1
    11     2     3    1
    12     3     4    1
    13     4     5   am
    14     5     6    2
    15    20     5    1
    16    20    21    1
    17    21    22    1
    18    22    23    1
    19    23    24    1
    20    24    25    1
    21    25    26    1
    22    26    27    2
    23    26    28   am
    24    28    30    1
    25    30    33    1
    26    33    34    3
    27    30    31    1
    28    31    32    1
    29     4     7    1
    30     7     8    1
    31    17    18   ar
    32    18    19   ar
    33    19    10    1
    34    19    15   ar
    35     8     1    1
    36    25    20    1
    37    32    30    1
    38    28    29    1
@<TRIPOS>MOLECULE
*****
 34 38 0 0 0
SMALL
GASTEIGER

@<TRIPOS>ATOM
      1 N         142.7591  138.5840  159.5825 N.pl3   1  UNL1       -0.2847
      2 C         142.2353  139.9702  159.8151 C.3     1  UNL1        0.1141
      3 C         142.6594  140.7380  161.0319 C.3     1  UNL1        0.1149
      4 N         143.6074  140.1195  162.0162 N.am    1  UNL1       -0.2760
      5 C         144.0316  140.8873  163.2330 C.2     1  UNL1        0.2257
      6 O         144.9796  140.2689  164.2173 O.2     1  UNL1       -0.2749
      7 C         144.1312  138.7334  161.7836 C.3     1  UNL1        0.1149
      8 C         143.7070  137.9656  160.5668 C.3     1  UNL1        0.1141
      9 C         143.6477  134.8280  156.5353 C.3     1  UNL1        0.0085
     10 C         142.4813  135.0439  155.6171 C.3     1  UNL1        0.0631
     11 C         143.1023  133.8410  154.9710 C.3     1  UNL1        0.0085
     12 C         141.5307  134.8420  154.4745 C.3     1  UNL1        0.1480
     13 O         140.3641  135.7681  154.2969 O.3     1  UNL1       -0.3480
     14 C         140.1482  136.8960  155.2618 C.3     1  UNL1        0.1763
     15 C         141.0988  137.0978  156.4044 C.ar    1  UNL1        0.0530
     16 S         141.1418  138.1142  157.5068 S.2     1  UNL1       -0.0538
     17 C         142.3349  137.8163  158.3657 C.ar    1  UNL1        0.1625
     18 N         143.0293  136.6158  157.7942 N.ar    1  UNL1       -0.2286
     19 C         142.2654  136.1718  156.5820 C.ar    1  UNL1        0.0669
     20 C         143.5078  142.2735  163.4655 C.3     1  UNL1        0.0853
     21 C         144.2804  143.4601  162.9703 C.3     1  UNL1        0.0096
     22 C         143.7566  144.8462  163.2028 C.3     1  UNL1        0.0005
     23 C         142.4602  145.0459  163.9306 C.3     1  UNL1        0.0005
     24 C         141.6877  143.8594  164.4257 C.3     1  UNL1        0.0096
     25 C         142.2115  142.4731  164.1932 C.3     1  UNL1        0.0851
     26 C         141.4389  141.2866  164.6884 C.2     1  UNL1        0.2231
     27 O         141.7936  140.6559  166.0023 O.2     1  UNL1       -0.2751
     28 N         140.3115  140.7308  163.8697 N.am    1  UNL1       -0.2959
     29 H         140.0787  141.1448  163.0074 H       1  UNL1        0.1502
     30 C         139.5390  139.5443  164.3649 C.3     1  UNL1        0.1364
     31 C         138.5295  138.7375  165.1267 C.3     1  UNL1        0.0353
     32 C         138.5888  140.2258  165.3045 C.3     1  UNL1        0.0353
     33 C         140.2208  138.4507  163.5973 C.1     1  UNL1        0.0896
     34 N         140.9026  137.3572  162.8297 N.1     1  UNL1       -0.1943
@<TRIPOS>BOND
     1     9    10    1
     2    10    11    1
     3    10    12    1
     4    12    13    1
     5    13    14    1
     6    14    15    1
     7    15    16   ar
     8    16    17   ar
     9    17     1    1
    10     1     2    1
    11     2     3    1
    12     3     4    1
    13     4     5   am
    14     5     6    2
    15    20     5    1
    16    20    21    1
    17    21    22    1
    18    22    23    1
    19    23    24    1
    20    24    25    1
    21    25    26    1
    22    26    27    2
    23    26    28   am
    24    28    30    1
    25    30    33    1
    26    33    34    3
    27    30    31    1
    28    31    32    1
    29     4     7    1
    30     7     8    1
    31    17    18   ar
    32    18    19   ar
    33    19    10    1
    34    19    15   ar
    35     8     1    1
    36    25    20    1
    37    32    30    1
    38    28    29    1
@<TRIPOS>MOLECULE
*****
 34 38 0 0 0
SMALL
GASTEIGER

@<TRIPOS>ATOM
      1 N         139.8440  139.0195  159.8457 N.pl3   1  UNL1       -0.2847
      2 C         140.3421  138.6714  161.2171 C.3     1  UNL1        0.1141
      3 C         139.7129  139.2994  162.4253 C.3     1  UNL1        0.1149
      4 N         138.5856  140.2754  162.2621 N.am    1  UNL1       -0.2760
      5 C         137.9564  140.9034  163.4703 C.2     1  UNL1        0.2257
      6 O         136.8292  141.8794  163.3071 O.2     1  UNL1       -0.2749
      7 C         138.0876  140.6234  160.8907 C.3     1  UNL1        0.1149
      8 C         138.7168  139.9955  159.6825 C.3     1  UNL1        0.1141
      9 C         139.1882  137.0002  155.4100 C.3     1  UNL1        0.0085
     10 C         140.6310  136.7200  155.1099 C.3     1  UNL1        0.0631
     11 C         139.9971  136.1928  153.8567 C.3     1  UNL1        0.0085
     12 C         141.8536  136.2568  154.3746 C.3     1  UNL1        0.1480
     13 O         143.2090  136.4180  154.9967 O.3     1  UNL1       -0.3480
     14 C         143.3418  137.0425  156.3540 C.3     1  UNL1        0.1763
     15 C         142.1192  137.5057  157.0893 C.ar    1  UNL1        0.0530
     16 S         141.9396  138.1528  158.4305 S.2     1  UNL1       -0.0538
     17 C         140.4732  138.3915  158.6375 C.ar    1  UNL1        0.1625
     18 N         139.7466  137.8919  157.4241 N.ar    1  UNL1       -0.2286
     19 C         140.7638  137.3445  156.4672 C.ar    1  UNL1        0.0669
     20 C         138.4545  140.5554  164.8417 C.3     1  UNL1        0.0853
     21 C         137.9689  139.3099  165.5223 C.3     1  UNL1        0.0096
     22 C         138.4669  138.9619  166.8937 C.3     1  UNL1        0.0005
     23 C         139.4505  139.8593  167.5845 C.3     1  UNL1        0.0005
     24 C         139.9361  141.1047  166.9040 C.3     1  UNL1        0.0096
     25 C         139.4381  141.4527  165.5325 C.3     1  UNL1        0.0851
     26 C         139.9236  142.6981  164.8520 C.2     1  UNL1        0.2231
     27 O         139.3549  144.0323  165.2347 O.2     1  UNL1       -0.2751
     28 N         140.9779  142.6094  163.7887 N.am    1  UNL1       -0.2959
     29 H         141.3512  141.7337  163.5375 H       1  UNL1        0.1502
     30 C         141.4635  143.8547  163.1081 C.3     1  UNL1        0.1364
     31 C         142.3055  145.0587  162.8052 C.3     1  UNL1        0.0353
     32 C         142.6583  144.1677  163.9592 C.3     1  UNL1        0.0353
     33 C         140.4372  143.9743  162.0207 C.1     1  UNL1        0.0896
     34 N         139.4111  144.0939  160.9332 N.1     1  UNL1       -0.1943
@<TRIPOS>BOND
     1     9    10    1
     2    10    11    1
     3    10    12    1
     4    12    13    1
     5    13    14    1
     6    14    15    1
     7    15    16   ar
     8    16    17   ar
     9    17     1    1
    10     1     2    1
    11     2     3    1
    12     3     4    1
    13     4     5   am
    14     5     6    2
    15    20     5    1
    16    20    21    1
    17    21    22    1
    18    22    23    1
    19    23    24    1
    20    24    25    1
    21    25    26    1
    22    26    27    2
    23    26    28   am
    24    28    30    1
    25    30    33    1
    26    33    34    3
    27    30    31    1
    28    31    32    1
    29     4     7    1
    30     7     8    1
    31    17    18   ar
    32    18    19   ar
    33    19    10    1
    34    19    15   ar
    35     8     1    1
    36    25    20    1
    37    32    30    1
    38    28    29    1
@<TRIPOS>MOLECULE
*****
 34 38 0 0 0
SMALL
GASTEIGER

@<TRIPOS>ATOM
      1 N         139.7838  144.1484  158.2399 N.pl3   1  UNL1       -0.2847
      2 C         140.1846  144.7249  159.5654 C.3     1  UNL1        0.1141
      3 C         139.6790  144.1075  160.8356 C.3     1  UNL1        0.1149
      4 N         138.7727  142.9136  160.7802 N.am    1  UNL1       -0.2760
      5 C         138.2671  142.2962  162.0503 C.2     1  UNL1        0.2257
      6 O         137.3608  141.1024  161.9950 O.2     1  UNL1       -0.2749
      7 C         138.3719  142.3372  159.4547 C.3     1  UNL1        0.1149
      8 C         138.8775  142.9546  158.1846 C.3     1  UNL1        0.1141
      9 C         139.3829  147.7869  154.9560 C.3     1  UNL1        0.0085
     10 C         140.4875  147.3452  154.0423 C.3     1  UNL1        0.0631
     11 C         140.0328  148.5806  153.3231 C.3     1  UNL1        0.0085
     12 C         141.4342  147.3326  152.8789 C.3     1  UNL1        0.1480
     13 O         142.4519  146.2380  152.7519 O.3     1  UNL1       -0.3480
     14 C         142.5229  145.1560  153.7883 C.3     1  UNL1        0.1763
     15 C         141.5762  145.1686  154.9518 C.ar    1  UNL1        0.0530
     16 S         141.4099  144.2432  156.1205 S.2     1  UNL1       -0.0538
     17 C         140.2894  144.7658  156.9698 C.ar    1  UNL1        0.1625
     18 N         139.7632  146.0143  156.3260 N.ar    1  UNL1       -0.2286
     19 C         140.5585  146.2632  155.0787 C.ar    1  UNL1        0.0669
     20 C         138.6679  142.8727  163.3758 C.3     1  UNL1        0.0853
     21 C         138.0407  144.1463  163.8603 C.3     1  UNL1        0.0096
     22 C         138.4415  144.7228  165.1858 C.3     1  UNL1        0.0005
     23 C         139.4695  144.0258  166.0269 C.3     1  UNL1        0.0005
     24 C         140.0967  142.7523  165.5424 C.3     1  UNL1        0.0096
     25 C         139.6959  142.1757  164.2169 C.3     1  UNL1        0.0851
     26 C         140.3231  140.9022  163.7324 C.2     1  UNL1        0.2231
     27 O         141.6538  140.9372  163.0411 O.2     1  UNL1       -0.2751
     28 N         139.6196  139.5936  163.9393 N.am    1  UNL1       -0.2959
     29 H         138.7462  139.5707  164.3931 H       1  UNL1        0.1502
     30 C         140.2468  138.3201  163.4549 C.3     1  UNL1        0.1364
     31 C         141.0709  137.0667  163.4524 C.3     1  UNL1        0.0353
     32 C         141.0314  137.9359  164.6742 C.3     1  UNL1        0.0353
     33 C         139.6801  138.2621  162.0673 C.1     1  UNL1        0.0896
     34 N         139.1133  138.2041  160.6797 N.1     1  UNL1       -0.1943
@<TRIPOS>BOND
     1     9    10    1
     2    10    11    1
     3    10    12    1
     4    12    13    1
     5    13    14    1
     6    14    15    1
     7    15    16   ar
     8    16    17   ar
     9    17     1    1
    10     1     2    1
    11     2     3    1
    12     3     4    1
    13     4     5   am
    14     5     6    2
    15    20     5    1
    16    20    21    1
    17    21    22    1
    18    22    23    1
    19    23    24    1
    20    24    25    1
    21    25    26    1
    22    26    27    2
    23    26    28   am
    24    28    30    1
    25    30    33    1
    26    33    34    3
    27    30    31    1
    28    31    32    1
    29     4     7    1
    30     7     8    1
    31    17    18   ar
    32    18    19   ar
    33    19    10    1
    34    19    15   ar
    35     8     1    1
    36    25    20    1
    37    32    30    1
    38    28    29    1
@<TRIPOS>MOLECULE
*****
 34 38 0 0 0
SMALL
GASTEIGER

@<TRIPOS>ATOM
      1 N         142.6665  138.6256  159.7817 N.pl3   1  UNL1       -0.2847
      2 C         142.0487  138.3251  161.1151 C.3     1  UNL1        0.1141
      3 C         142.6409  138.9071  162.3643 C.3     1  UNL1        0.1149
      4 N         143.8509  139.7895  162.2802 N.am    1  UNL1       -0.2760
      5 C         144.4431  140.3714  163.5295 C.2     1  UNL1        0.2257
      6 O         145.6532  141.2539  163.4453 O.2     1  UNL1       -0.2749
      7 C         144.4687  140.0900  160.9468 C.3     1  UNL1        0.1149
      8 C         143.8765  139.5081  159.6976 C.3     1  UNL1        0.1141
      9 C         143.2667  135.6638  155.9022 C.3     1  UNL1        0.0085
     10 C         141.9162  135.8773  155.2853 C.3     1  UNL1        0.0631
     11 C         142.5053  134.9156  154.2962 C.3     1  UNL1        0.0085
     12 C         140.7703  135.7568  154.3248 C.3     1  UNL1        0.1480
     13 O         139.5043  136.5237  154.5677 O.3     1  UNL1       -0.3480
     14 C         139.3841  137.4112  155.7710 C.3     1  UNL1        0.1763
     15 C         140.5300  137.5316  156.7314 C.ar    1  UNL1        0.0530
     16 S         140.7020  138.3221  157.9946 S.2     1  UNL1       -0.0538
     17 C         142.0743  138.0437  158.5324 C.ar    1  UNL1        0.1625
     18 N         142.7504  137.0812  157.6016 N.ar    1  UNL1       -0.2286
     19 C         141.7960  136.7647  156.4885 C.ar    1  UNL1        0.0669
     20 C         143.8253  140.0710  164.8628 C.3     1  UNL1        0.0853
     21 C         144.0407  138.7324  165.5047 C.3     1  UNL1        0.0096
     22 C         143.4229  138.4319  166.8381 C.3     1  UNL1        0.0005
     23 C         142.5897  139.4699  167.5297 C.3     1  UNL1        0.0005
     24 C         142.3742  140.8084  166.8878 C.3     1  UNL1        0.0096
     25 C         142.9921  141.1090  165.5544 C.3     1  UNL1        0.0851
     26 C         142.7766  142.4475  164.9126 C.2     1  UNL1        0.2231
     27 O         143.6943  143.5897  165.2339 O.2     1  UNL1       -0.2751
     28 N         141.6436  142.6437  163.9494 N.am    1  UNL1       -0.2959
     29 H         141.0413  141.8940  163.7385 H       1  UNL1        0.1502
     30 C         141.4282  143.9822  163.3076 C.3     1  UNL1        0.1364
     31 C         140.8990  145.3671  163.0790 C.3     1  UNL1        0.0353
     32 C         140.4500  144.5804  164.2746 C.3     1  UNL1        0.0353
     33 C         142.3316  143.8489  162.1175 C.1     1  UNL1        0.0896
     34 N         143.2350  143.7156  160.9276 N.1     1  UNL1       -0.1943
@<TRIPOS>BOND
     1     9    10    1
     2    10    11    1
     3    10    12    1
     4    12    13    1
     5    13    14    1
     6    14    15    1
     7    15    16   ar
     8    16    17   ar
     9    17     1    1
    10     1     2    1
    11     2     3    1
    12     3     4    1
    13     4     5   am
    14     5     6    2
    15    20     5    1
    16    20    21    1
    17    21    22    1
    18    22    23    1
    19    23    24    1
    20    24    25    1
    21    25    26    1
    22    26    27    2
    23    26    28   am
    24    28    30    1
    25    30    33    1
    26    33    34    3
    27    30    31    1
    28    31    32    1
    29     4     7    1
    30     7     8    1
    31    17    18   ar
    32    18    19   ar
    33    19    10    1
    34    19    15   ar
    35     8     1    1
    36    25    20    1
    37    32    30    1
    38    28    29    1
@<TRIPOS>MOLECULE
*****
 34 38 0 0 0
SMALL
GASTEIGER

@<TRIPOS>ATOM
      1 N         138.9580  140.5915  159.6761 N.pl3   1  UNL1       -0.2847
      2 C         138.6466  141.0765  161.0609 C.3     1  UNL1        0.1141
      3 C         139.0820  140.2752  162.2519 C.3     1  UNL1        0.1149
      4 N         139.8289  138.9890  162.0580 N.am    1  UNL1       -0.2760
      5 C         140.2643  138.1877  163.2490 C.2     1  UNL1        0.2257
      6 O         141.0112  136.9014  163.0551 O.2     1  UNL1       -0.2749
      7 C         140.1404  138.5040  160.6732 C.3     1  UNL1        0.1149
      8 C         139.7050  139.3052  159.4823 C.3     1  UNL1        0.1141
      9 C         139.7030  144.5414  156.8430 C.3     1  UNL1        0.0085
     10 C         138.5783  144.3031  155.8795 C.3     1  UNL1        0.0631
     11 C         139.1432  145.5715  155.3119 C.3     1  UNL1        0.0085
     12 C         137.6498  144.5053  154.7189 C.3     1  UNL1        0.1480
     13 O         136.5470  143.5219  154.4605 O.3     1  UNL1       -0.3480
     14 C         136.3727  142.3363  155.3627 C.3     1  UNL1        0.1763
     15 C         137.3011  142.1341  156.5232 C.ar    1  UNL1        0.0530
     16 S         137.3745  141.0682  157.5761 S.2     1  UNL1       -0.0538
     17 C         138.5226  141.3928  158.4852 C.ar    1  UNL1        0.1625
     18 N         139.1588  142.6593  157.9942 N.ar    1  UNL1       -0.2286
     19 C         138.4040  143.1175  156.7817 C.ar    1  UNL1        0.0669
     20 C         139.9528  138.6727  164.6338 C.3     1  UNL1        0.0853
     21 C         138.5826  138.4691  165.2093 C.3     1  UNL1        0.0096
     22 C         138.2711  138.9541  166.5941 C.3     1  UNL1        0.0005
     23 C         139.3298  139.6426  167.4035 C.3     1  UNL1        0.0005
     24 C         140.7000  139.8462  166.8280 C.3     1  UNL1        0.0096
     25 C         141.0115  139.3612  165.4432 C.3     1  UNL1        0.0851
     26 C         142.3817  139.5648  164.8678 C.2     1  UNL1        0.2231
     27 O         143.4725  138.5778  165.1610 O.2     1  UNL1       -0.2751
     28 N         142.6611  140.7553  163.9991 N.am    1  UNL1       -0.2959
     29 H         141.9451  141.4031  163.8066 H       1  UNL1        0.1502
     30 C         144.0312  140.9589  163.4237 C.3     1  UNL1        0.1364
     31 C         145.4377  141.4588  163.2752 C.3     1  UNL1        0.0353
     32 C         144.6114  141.8828  164.4531 C.3     1  UNL1        0.0353
     33 C         143.9269  140.1056  162.1944 C.1     1  UNL1        0.0896
     34 N         143.8225  139.2523  160.9652 N.1     1  UNL1       -0.1943
@<TRIPOS>BOND
     1     9    10    1
     2    10    11    1
     3    10    12    1
     4    12    13    1
     5    13    14    1
     6    14    15    1
     7    15    16   ar
     8    16    17   ar
     9    17     1    1
    10     1     2    1
    11     2     3    1
    12     3     4    1
    13     4     5   am
    14     5     6    2
    15    20     5    1
    16    20    21    1
    17    21    22    1
    18    22    23    1
    19    23    24    1
    20    24    25    1
    21    25    26    1
    22    26    27    2
    23    26    28   am
    24    28    30    1
    25    30    33    1
    26    33    34    3
    27    30    31    1
    28    31    32    1
    29     4     7    1
    30     7     8    1
    31    17    18   ar
    32    18    19   ar
    33    19    10    1
    34    19    15   ar
    35     8     1    1
    36    25    20    1
    37    32    30    1
    38    28    29    1
@<TRIPOS>MOLECULE
*****
 34 38 0 0 0
SMALL
GASTEIGER

@<TRIPOS>ATOM
      1 N         139.9057  139.0780  159.9283 N.pl3   1  UNL1       -0.2847
      2 C         139.9568  140.5210  160.3344 C.3     1  UNL1        0.1141
      3 C         139.5770  140.9216  161.7292 C.3     1  UNL1        0.1149
      4 N         139.1460  139.8791  162.7178 N.am    1  UNL1       -0.2760
      5 C         138.7662  140.2796  164.1125 C.2     1  UNL1        0.2257
      6 O         138.3352  139.2371  165.1011 O.2     1  UNL1       -0.2749
      7 C         139.0949  138.4360  162.3116 C.3     1  UNL1        0.1149
      8 C         139.4748  138.0355  160.9169 C.3     1  UNL1        0.1141
      9 C         143.0072  136.5950  157.0302 C.3     1  UNL1        0.0085
     10 C         142.3612  136.9347  155.7198 C.3     1  UNL1        0.0631
     11 C         143.4955  136.0801  155.2372 C.3     1  UNL1        0.0085
     12 C         142.1091  136.9776  154.2417 C.3     1  UNL1        0.1480
     13 O         140.9471  137.7572  153.7014 O.3     1  UNL1       -0.3480
     14 C         140.0371  138.4938  154.6391 C.3     1  UNL1        0.1763
     15 C         140.2892  138.4509  156.1171 C.ar    1  UNL1        0.0530
     16 S         139.5688  139.0727  157.2766 S.2     1  UNL1       -0.0538
     17 C         140.2856  138.6775  158.5336 C.ar    1  UNL1        0.1625
     18 N         141.4490  137.8114  158.1509 N.ar    1  UNL1       -0.2286
     19 C         141.4512  137.6714  156.6574 C.ar    1  UNL1        0.0669
     20 C         138.8172  141.7226  164.5186 C.3     1  UNL1        0.0853
     21 C         137.6340  142.6123  164.2765 C.3     1  UNL1        0.0096
     22 C         137.6851  144.0553  164.6826 C.3     1  UNL1        0.0005
     23 C         138.9194  144.6088  165.3309 C.3     1  UNL1        0.0005
     24 C         140.1026  143.7192  165.5730 C.3     1  UNL1        0.0096
     25 C         140.0515  142.2761  165.1668 C.3     1  UNL1        0.0851
     26 C         141.2347  141.3865  165.4089 C.2     1  UNL1        0.2231
     27 O         142.5775  141.7565  164.8523 O.2     1  UNL1       -0.2751
     28 N         141.0751  140.1270  166.2077 N.am    1  UNL1       -0.2959
     29 H         140.1938  139.8841  166.5731 H       1  UNL1        0.1502
     30 C         142.2584  139.2374  166.4498 C.3     1  UNL1        0.1364
     31 C         143.3142  138.1995  166.2090 C.3     1  UNL1        0.0353
     32 C         142.3025  138.5014  165.1436 C.3     1  UNL1        0.0353
     33 C         142.6252  139.6645  167.8402 C.1     1  UNL1        0.0896
     34 N         142.9919  140.0917  169.2305 N.1     1  UNL1       -0.1943
@<TRIPOS>BOND
     1     9    10    1
     2    10    11    1
     3    10    12    1
     4    12    13    1
     5    13    14    1
     6    14    15    1
     7    15    16   ar
     8    16    17   ar
     9    17     1    1
    10     1     2    1
    11     2     3    1
    12     3     4    1
    13     4     5   am
    14     5     6    2
    15    20     5    1
    16    20    21    1
    17    21    22    1
    18    22    23    1
    19    23    24    1
    20    24    25    1
    21    25    26    1
    22    26    27    2
    23    26    28   am
    24    28    30    1
    25    30    33    1
    26    33    34    3
    27    30    31    1
    28    31    32    1
    29     4     7    1
    30     7     8    1
    31    17    18   ar
    32    18    19   ar
    33    19    10    1
    34    19    15   ar
    35     8     1    1
    36    25    20    1
    37    32    30    1
    38    28    29    1
@<TRIPOS>MOLECULE
*****
 34 38 0 0 0
SMALL
GASTEIGER

@<TRIPOS>ATOM
      1 N         139.9521  138.9510  160.0308 N.pl3   1  UNL1       -0.2847
      2 C         140.1168  140.3847  160.4399 C.3     1  UNL1        0.1141
      3 C         139.6394  140.8398  161.7871 C.3     1  UNL1        0.1149
      4 N         138.9973  139.8612  162.7253 N.am    1  UNL1       -0.2760
      5 C         138.5200  140.3164  164.0725 C.2     1  UNL1        0.2257
      6 O         137.8779  139.3378  165.0106 O.2     1  UNL1       -0.2749
      7 C         138.8327  138.4276  162.3162 C.3     1  UNL1        0.1149
      8 C         139.3100  137.9725  160.9689 C.3     1  UNL1        0.1141
      9 C         138.7599  137.3699  155.5295 C.3     1  UNL1        0.0085
     10 C         140.1558  137.2179  155.0020 C.3     1  UNL1        0.0631
     11 C         139.3736  136.7848  153.7976 C.3     1  UNL1        0.0085
     12 C         141.2801  136.9155  154.0562 C.3     1  UNL1        0.1480
     13 O         142.7018  137.0990  154.4980 O.3     1  UNL1       -0.3480
     14 C         142.9992  137.5849  155.8855 C.3     1  UNL1        0.1763
     15 C         141.8749  137.8873  156.8313 C.ar    1  UNL1        0.0530
     16 S         141.8602  138.3768  158.2491 S.2     1  UNL1       -0.0538
     17 C         140.4295  138.4959  158.6836 C.ar    1  UNL1        0.1625
     18 N         139.5599  138.0799  157.5343 N.ar    1  UNL1       -0.2286
     19 C         140.4533  137.7038  156.3895 C.ar    1  UNL1        0.0669
     20 C         138.6847  141.7500  164.4816 C.3     1  UNL1        0.0853
     21 C         137.5946  142.7408  164.1982 C.3     1  UNL1        0.0096
     22 C         137.7593  144.1745  164.6073 C.3     1  UNL1        0.0005
     23 C         139.0140  144.6175  165.2998 C.3     1  UNL1        0.0005
     24 C         140.1040  143.6268  165.5831 C.3     1  UNL1        0.0096
     25 C         139.9394  142.1930  165.1740 C.3     1  UNL1        0.0851
     26 C         141.0294  141.2023  165.4574 C.2     1  UNL1        0.2231
     27 O         141.2342  140.6912  166.8526 O.2     1  UNL1       -0.2751
     28 N         141.9146  140.7227  164.3455 N.am    1  UNL1       -0.2959
     29 H         141.7802  141.0582  163.4297 H       1  UNL1        0.1502
     30 C         143.0046  139.7320  164.6288 C.3     1  UNL1        0.1364
     31 C         144.3683  139.1842  164.9296 C.3     1  UNL1        0.0353
     32 C         144.1710  140.6634  164.7774 C.3     1  UNL1        0.0353
     33 C         142.2168  138.4565  164.5786 C.1     1  UNL1        0.0896
     34 N         141.4291  137.1810  164.5284 N.1     1  UNL1       -0.1943
@<TRIPOS>BOND
     1     9    10    1
     2    10    11    1
     3    10    12    1
     4    12    13    1
     5    13    14    1
     6    14    15    1
     7    15    16   ar
     8    16    17   ar
     9    17     1    1
    10     1     2    1
    11     2     3    1
    12     3     4    1
    13     4     5   am
    14     5     6    2
    15    20     5    1
    16    20    21    1
    17    21    22    1
    18    22    23    1
    19    23    24    1
    20    24    25    1
    21    25    26    1
    22    26    27    2
    23    26    28   am
    24    28    30    1
    25    30    33    1
    26    33    34    3
    27    30    31    1
    28    31    32    1
    29     4     7    1
    30     7     8    1
    31    17    18   ar
    32    18    19   ar
    33    19    10    1
    34    19    15   ar
    35     8     1    1
    36    25    20    1
    37    32    30    1
    38    28    29    1
