@<TRIPOS>MOLECULE
*****
 42 45 0 0 0
SMALL
GASTEIGER

@<TRIPOS>ATOM
      1 C         141.3368  140.8531  162.4762 C.3     1  UNL1        0.0808
      2 C         140.9115  140.6455  163.8997 C.ar    1  UNL1        0.0375
      3 C         141.0484  141.7606  164.8936 C.ar    1  UNL1        0.0023
      4 C         140.6230  141.5530  166.3170 C.ar    1  UNL1        0.0181
      5 C         140.7599  142.6680  167.3109 C.ar    1  UNL1        0.0082
      6 C         140.3346  142.4604  168.7342 C.ar    1  UNL1        0.0347
      7 BR        140.4715  143.5754  169.7282 Br      1  UNL1       -0.0490
      8 C         139.7723  141.1377  169.1637 C.ar    1  UNL1        0.0082
      9 C         139.6354  140.0227  168.1697 C.ar    1  UNL1        0.0197
     10 C         140.0608  140.2303  166.7464 C.ar    1  UNL1        0.0844
     11 N         139.9238  139.1152  165.7524 N.ar    1  UNL1       -0.2119
     12 C         140.3492  139.3229  164.3291 C.ar    1  UNL1        0.2211
     13 O         140.2123  138.2078  163.3351 O.3     1  UNL1       -0.4563
     14 C         138.8632  137.6159  163.0531 C.3     1  UNL1        0.2542
     15 C         140.4537  140.3924  161.3548 C.ar    1  UNL1        0.0245
     16 C         139.0429  140.8925  161.2571 C.ar    1  UNL1        0.0200
     17 C         138.1598  140.4317  160.1356 C.ar    1  UNL1        0.1019
     18 N         138.6874  139.4708  159.1117 N.ar    1  UNL1       -0.2076
     19 C         140.0982  138.9706  159.2094 C.ar    1  UNL1        0.2598
     20 C         140.9814  139.4315  160.3310 C.ar    1  UNL1        0.1879
     21 O         140.6259  138.0097  158.1857 O.3     1  UNL1       -0.4541
     22 C         139.8123  137.6913  156.9664 C.3     1  UNL1        0.2543
     23 O         142.3921  138.9313  160.4287 O.3     1  UNL1       -0.4670
     24 C         143.4137  139.3664  159.4201 C.3     1  UNL1        0.2527
     25 C         142.6453  141.5215  162.1744 C.3     1  UNL1        0.1175
     26 O         143.3672  140.4568  162.9459 O.3     1  UNL1       -0.3819
     27 H         144.3205  140.6348  162.9282 H       1  UNL1        0.2107
     28 C         140.1359  144.4688  161.2988 C.ar    1  UNL1        0.1913
     29 C         140.8578  143.4040  162.0703 C.ar    1  UNL1        0.0413
     30 C         141.9234  142.5863  161.4029 C.ar    1  UNL1        0.0248
     31 C         142.2673  142.8333  159.9639 C.ar    1  UNL1        0.1002
     32 N         141.5454  143.8980  159.1924 N.ar    1  UNL1       -0.2078
     33 C         140.4797  144.7158  159.8598 C.ar    1  UNL1        0.2601
     34 C         138.1729  144.6570  162.9904 C.3     1  UNL1        0.2527
     35 O         139.0702  145.2865  161.9664 O.3     1  UNL1       -0.4667
     36 O         139.7579  145.7805  159.0883 O.3     1  UNL1       -0.4541
     37 C         140.1635  146.0900  157.6778 C.3     1  UNL1        0.2543
     38 C         143.9538  142.1899  161.8725 C.3     1  UNL1        0.0492
     39 C         144.8347  142.6549  162.9941 C.3     1  UNL1        0.0750
     40 N         144.2866  143.5707  164.0480 N.3     1  UNL1       -0.2702
     41 C         143.7386  144.9131  163.6640 C.3     1  UNL1        0.0897
     42 C         144.2864  143.1440  165.4861 C.3     1  UNL1        0.0897
@<TRIPOS>BOND
     1    34    35    1
     2    35    28    1
     3    28    29   ar
     4    29    30   ar
     5    30    25    1
     6    25    26    1
     7    25    38    1
     8    38    39    1
     9    39    40    1
    10    40    41    1
    11    40    42    1
    12    25     1    1
    13     1     2    1
    14     2     3   ar
    15     3     4   ar
    16     4     5   ar
    17     5     6   ar
    18     6     7    1
    19     6     8   ar
    20     8     9   ar
    21     9    10   ar
    22    10    11   ar
    23    11    12   ar
    24    12    13    1
    25    13    14    1
    26     1    15    1
    27    15    16   ar
    28    16    17   ar
    29    17    18   ar
    30    18    19   ar
    31    19    21    1
    32    21    22    1
    33    19    20   ar
    34    20    23    1
    35    23    24    1
    36    30    31   ar
    37    31    32   ar
    38    32    33   ar
    39    33    36    1
    40    36    37    1
    41    33    28   ar
    42    12     2   ar
    43    20    15   ar
    44    10     4   ar
    45    26    27    1
@<TRIPOS>MOLECULE
*****
 42 45 0 0 0
SMALL
GASTEIGER

@<TRIPOS>ATOM
      1 C         141.8814  142.4158  161.4328 C.3     1  UNL1        0.0808
      2 C         141.8236  141.8508  162.8212 C.ar    1  UNL1        0.0375
      3 C         140.5564  141.2255  163.3242 C.ar    1  UNL1        0.0023
      4 C         140.4985  140.6604  164.7126 C.ar    1  UNL1        0.0181
      5 C         139.2313  140.0351  165.2156 C.ar    1  UNL1        0.0082
      6 C         139.1735  139.4702  166.6039 C.ar    1  UNL1        0.0347
      7 BR        137.9062  138.8448  167.1070 Br      1  UNL1       -0.0490
      8 C         140.3829  139.5305  167.4891 C.ar    1  UNL1        0.0082
      9 C         141.6501  140.1558  166.9861 C.ar    1  UNL1        0.0197
     10 C         141.7079  140.7208  165.5978 C.ar    1  UNL1        0.0844
     11 N         142.9752  141.3461  165.0947 N.ar    1  UNL1       -0.2119
     12 C         143.0330  141.9111  163.7064 C.ar    1  UNL1        0.2211
     13 O         144.3003  142.5364  163.2033 O.3     1  UNL1       -0.4563
     14 C         145.5591  141.7242  163.1285 C.3     1  UNL1        0.2542
     15 C         142.7212  141.7470  160.3853 C.ar    1  UNL1        0.0245
     16 C         143.7467  142.5380  159.6285 C.ar    1  UNL1        0.0200
     17 C         144.5866  141.8692  158.5809 C.ar    1  UNL1        0.1019
     18 N         144.4009  140.4093  158.2902 N.ar    1  UNL1       -0.2076
     19 C         143.3754  139.6184  159.0470 C.ar    1  UNL1        0.2598
     20 C         142.5356  140.2872  160.0946 C.ar    1  UNL1        0.1879
     21 O         143.1898  138.1586  158.7563 O.3     1  UNL1       -0.4541
     22 C         142.4283  137.7275  157.5380 C.3     1  UNL1        0.2543
     23 O         141.5101  139.4963  160.8514 O.3     1  UNL1       -0.4670
     24 C         141.9377  138.3497  161.7190 C.3     1  UNL1        0.2527
     25 C         141.0994  143.6496  161.0920 C.3     1  UNL1        0.1175
     26 O         142.0307  144.4720  161.9325 O.3     1  UNL1       -0.3819
     27 H         141.7547  145.4015  161.9059 H       1  UNL1        0.2107
     28 C         138.2710  141.0620  160.0655 C.ar    1  UNL1        0.1913
     29 C         139.2023  141.8844  160.9059 C.ar    1  UNL1        0.0413
     30 C         140.1681  142.8273  160.2516 C.ar    1  UNL1        0.0248
     31 C         140.2026  142.9478  158.7569 C.ar    1  UNL1        0.1002
     32 N         139.2713  142.1254  157.9164 N.ar    1  UNL1       -0.2078
     33 C         138.3054  141.1825  158.5707 C.ar    1  UNL1        0.2601
     34 C         137.8131  138.9043  161.4384 C.3     1  UNL1        0.2527
     35 O         137.3051  140.1191  160.7198 O.3     1  UNL1       -0.4667
     36 O         137.3741  140.3601  157.7303 O.3     1  UNL1       -0.4541
     37 C         136.6466  140.9913  156.5804 C.3     1  UNL1        0.2543
     38 C         140.3174  144.8835  160.7513 C.3     1  UNL1        0.0492
     39 C         139.6479  145.6711  161.8383 C.3     1  UNL1        0.0750
     40 N         139.0914  144.9674  163.0404 N.3     1  UNL1       -0.2702
     41 C         137.7284  144.3441  162.9804 C.3     1  UNL1        0.0897
     42 C         139.8981  144.8869  164.3025 C.3     1  UNL1        0.0897
@<TRIPOS>BOND
     1    34    35    1
     2    35    28    1
     3    28    29   ar
     4    29    30   ar
     5    30    25    1
     6    25    26    1
     7    25    38    1
     8    38    39    1
     9    39    40    1
    10    40    41    1
    11    40    42    1
    12    25     1    1
    13     1     2    1
    14     2     3   ar
    15     3     4   ar
    16     4     5   ar
    17     5     6   ar
    18     6     7    1
    19     6     8   ar
    20     8     9   ar
    21     9    10   ar
    22    10    11   ar
    23    11    12   ar
    24    12    13    1
    25    13    14    1
    26     1    15    1
    27    15    16   ar
    28    16    17   ar
    29    17    18   ar
    30    18    19   ar
    31    19    21    1
    32    21    22    1
    33    19    20   ar
    34    20    23    1
    35    23    24    1
    36    30    31   ar
    37    31    32   ar
    38    32    33   ar
    39    33    36    1
    40    36    37    1
    41    33    28   ar
    42    12     2   ar
    43    20    15   ar
    44    10     4   ar
    45    26    27    1
@<TRIPOS>MOLECULE
*****
 42 45 0 0 0
SMALL
GASTEIGER

@<TRIPOS>ATOM
      1 C         141.0088  141.4211  162.0950 C.3     1  UNL1        0.0808
      2 C         140.8380  142.5247  161.0935 C.ar    1  UNL1        0.0375
      3 C         141.5569  142.4621  159.7785 C.ar    1  UNL1        0.0023
      4 C         141.3861  143.5657  158.7770 C.ar    1  UNL1        0.0181
      5 C         142.1049  143.5030  157.4620 C.ar    1  UNL1        0.0082
      6 C         141.9341  144.6066  156.4606 C.ar    1  UNL1        0.0347
      7 BR        142.6529  144.5440  155.1455 Br      1  UNL1       -0.0490
      8 C         141.0444  145.7729  156.7742 C.ar    1  UNL1        0.0082
      9 C         140.3255  145.8355  158.0892 C.ar    1  UNL1        0.0197
     10 C         140.4964  144.7319  159.0906 C.ar    1  UNL1        0.0844
     11 N         139.7775  144.7946  160.4057 N.ar    1  UNL1       -0.2119
     12 C         139.9483  143.6910  161.4071 C.ar    1  UNL1        0.2211
     13 O         139.2295  143.7536  162.7222 O.3     1  UNL1       -0.4563
     14 C         137.7348  143.6355  162.7662 C.3     1  UNL1        0.2542
     15 C         142.3683  141.1164  162.6507 C.ar    1  UNL1        0.0245
     16 C         142.9498  139.7420  162.4991 C.ar    1  UNL1        0.0200
     17 C         144.3093  139.4373  163.0548 C.ar    1  UNL1        0.1019
     18 N         145.0874  140.5070  163.7622 N.ar    1  UNL1       -0.2076
     19 C         144.5060  141.8814  163.9138 C.ar    1  UNL1        0.2598
     20 C         143.1464  142.1861  163.3580 C.ar    1  UNL1        0.1879
     21 O         145.2841  142.9511  164.6211 O.3     1  UNL1       -0.4541
     22 C         144.7723  143.5228  165.9099 C.3     1  UNL1        0.2543
     23 O         142.5650  143.5605  163.5096 O.3     1  UNL1       -0.4670
     24 C         143.1621  144.7143  162.7598 C.3     1  UNL1        0.2527
     25 C         139.8201  140.6222  162.5407 C.3     1  UNL1        0.1175
     26 O         139.9845  141.1546  163.9334 O.3     1  UNL1       -0.3819
     27 H         139.2952  140.7823  164.5054 H       1  UNL1        0.2107
     28 C         138.3587  140.0386  158.8974 C.ar    1  UNL1        0.1913
     29 C         138.5231  140.5709  160.2901 C.ar    1  UNL1        0.0413
     30 C         139.6556  140.0899  161.1480 C.ar    1  UNL1        0.0248
     31 C         140.6236  139.0766  160.6133 C.ar    1  UNL1        0.1002
     32 N         140.4592  138.5442  159.2206 N.ar    1  UNL1       -0.2078
     33 C         139.3267  139.0253  158.3627 C.ar    1  UNL1        0.2601
     34 C         137.4359  141.6645  157.0932 C.3     1  UNL1        0.2527
     35 O         137.2261  140.5197  158.0395 O.3     1  UNL1       -0.4667
     36 O         139.1622  138.4929  156.9700 O.3     1  UNL1       -0.4541
     37 C         140.0477  137.3854  156.4810 C.3     1  UNL1        0.2543
     38 C         138.6313  139.8234  162.9865 C.3     1  UNL1        0.0492
     39 C         138.1793  139.8851  164.4155 C.3     1  UNL1        0.0750
     40 N         138.5185  138.7687  165.3582 N.3     1  UNL1       -0.2702
     41 C         137.9353  138.7507  166.7400 C.3     1  UNL1        0.0897
     42 C         139.4410  137.6704  164.9191 C.3     1  UNL1        0.0897
@<TRIPOS>BOND
     1    34    35    1
     2    35    28    1
     3    28    29   ar
     4    29    30   ar
     5    30    25    1
     6    25    26    1
     7    25    38    1
     8    38    39    1
     9    39    40    1
    10    40    41    1
    11    40    42    1
    12    25     1    1
    13     1     2    1
    14     2     3   ar
    15     3     4   ar
    16     4     5   ar
    17     5     6   ar
    18     6     7    1
    19     6     8   ar
    20     8     9   ar
    21     9    10   ar
    22    10    11   ar
    23    11    12   ar
    24    12    13    1
    25    13    14    1
    26     1    15    1
    27    15    16   ar
    28    16    17   ar
    29    17    18   ar
    30    18    19   ar
    31    19    21    1
    32    21    22    1
    33    19    20   ar
    34    20    23    1
    35    23    24    1
    36    30    31   ar
    37    31    32   ar
    38    32    33   ar
    39    33    36    1
    40    36    37    1
    41    33    28   ar
    42    12     2   ar
    43    20    15   ar
    44    10     4   ar
    45    26    27    1
@<TRIPOS>MOLECULE
*****
 42 45 0 0 0
SMALL
GASTEIGER

@<TRIPOS>ATOM
      1 C         139.7422  140.6735  159.6630 C.3     1  UNL1        0.0808
      2 C         139.5647  139.9047  158.3872 C.ar    1  UNL1        0.0375
      3 C         140.4623  138.7427  158.0807 C.ar    1  UNL1        0.0023
      4 C         140.2847  137.9740  156.8049 C.ar    1  UNL1        0.0181
      5 C         141.1823  136.8120  156.4983 C.ar    1  UNL1        0.0082
      6 C         141.0047  136.0433  155.2226 C.ar    1  UNL1        0.0347
      7 BR        141.9023  134.8812  154.9160 Br      1  UNL1       -0.0490
      8 C         139.9295  136.4366  154.2535 C.ar    1  UNL1        0.0082
      9 C         139.0319  137.5985  154.5600 C.ar    1  UNL1        0.0197
     10 C         139.2095  138.3672  155.8357 C.ar    1  UNL1        0.0844
     11 N         138.3118  139.5293  156.1424 N.ar    1  UNL1       -0.2119
     12 C         138.4895  140.2980  157.4181 C.ar    1  UNL1        0.2211
     13 O         137.5918  141.4601  157.7247 O.3     1  UNL1       -0.4563
     14 C         137.3356  142.5058  156.6804 C.3     1  UNL1        0.2542
     15 C         140.4105  142.0162  159.6427 C.ar    1  UNL1        0.0245
     16 C         141.8258  142.1424  159.1621 C.ar    1  UNL1        0.0200
     17 C         142.4940  143.4852  159.1418 C.ar    1  UNL1        0.1019
     18 N         141.7470  144.7018  159.6021 N.ar    1  UNL1       -0.2076
     19 C         140.3317  144.5756  160.0828 C.ar    1  UNL1        0.2598
     20 C         139.6634  143.2327  160.1030 C.ar    1  UNL1        0.1879
     21 O         139.5846  145.7921  160.5431 O.3     1  UNL1       -0.4541
     22 C         139.8143  146.3361  161.9219 C.3     1  UNL1        0.2543
     23 O         138.2481  143.1065  160.5837 O.3     1  UNL1       -0.4670
     24 C         137.9471  143.1609  162.0522 C.3     1  UNL1        0.2527
     25 C         139.2516  140.0994  160.9591 C.3     1  UNL1        0.1175
     26 O         137.8529  140.0728  160.4177 O.3     1  UNL1       -0.3819
     27 H         137.2523  139.7170  161.0912 H       1  UNL1        0.2107
     28 C         142.4022  141.0871  163.1608 C.ar    1  UNL1        0.1913
     29 C         141.0036  141.0604  162.6194 C.ar    1  UNL1        0.0413
     30 C         140.6502  140.1261  161.5004 C.ar    1  UNL1        0.0248
     31 C         141.6955  139.2186  160.9228 C.ar    1  UNL1        0.1002
     32 N         143.0941  139.2453  161.4641 N.ar    1  UNL1       -0.2078
     33 C         143.4475  140.1795  162.5831 C.ar    1  UNL1        0.2601
     34 C         143.4567  143.3141  163.9845 C.3     1  UNL1        0.2527
     35 O         142.7556  142.0214  164.2799 O.3     1  UNL1       -0.4667
     36 O         144.8461  140.2062  163.1245 O.3     1  UNL1       -0.4541
     37 C         145.1683  139.4952  164.4053 C.3     1  UNL1        0.2543
     38 C         138.7609  139.5254  162.2551 C.3     1  UNL1        0.0492
     39 C         138.9149  138.0592  162.5320 C.3     1  UNL1        0.0750
     40 N         139.5979  137.6006  163.7863 N.3     1  UNL1       -0.2702
     41 C         138.8692  137.6458  165.0966 C.3     1  UNL1        0.0897
     42 C         141.0097  137.0967  163.7302 C.3     1  UNL1        0.0897
@<TRIPOS>BOND
     1    34    35    1
     2    35    28    1
     3    28    29   ar
     4    29    30   ar
     5    30    25    1
     6    25    26    1
     7    25    38    1
     8    38    39    1
     9    39    40    1
    10    40    41    1
    11    40    42    1
    12    25     1    1
    13     1     2    1
    14     2     3   ar
    15     3     4   ar
    16     4     5   ar
    17     5     6   ar
    18     6     7    1
    19     6     8   ar
    20     8     9   ar
    21     9    10   ar
    22    10    11   ar
    23    11    12   ar
    24    12    13    1
    25    13    14    1
    26     1    15    1
    27    15    16   ar
    28    16    17   ar
    29    17    18   ar
    30    18    19   ar
    31    19    21    1
    32    21    22    1
    33    19    20   ar
    34    20    23    1
    35    23    24    1
    36    30    31   ar
    37    31    32   ar
    38    32    33   ar
    39    33    36    1
    40    36    37    1
    41    33    28   ar
    42    12     2   ar
    43    20    15   ar
    44    10     4   ar
    45    26    27    1
@<TRIPOS>MOLECULE
*****
 42 45 0 0 0
SMALL
GASTEIGER

@<TRIPOS>ATOM
      1 C         140.7344  140.9046  162.2437 C.3     1  UNL1        0.0808
      2 C         141.7187  141.3721  161.2128 C.ar    1  UNL1        0.0375
      3 C         142.0479  140.4977  160.0394 C.ar    1  UNL1        0.0023
      4 C         143.0323  140.9652  159.0085 C.ar    1  UNL1        0.0181
      5 C         143.3615  140.0908  157.8351 C.ar    1  UNL1        0.0082
      6 C         144.3458  140.5582  156.8043 C.ar    1  UNL1        0.0347
      7 BR        144.6751  139.6838  155.6308 Br      1  UNL1       -0.0490
      8 C         145.0009  141.9001  156.9469 C.ar    1  UNL1        0.0082
      9 C         144.6716  142.7745  158.1204 C.ar    1  UNL1        0.0197
     10 C         143.6873  142.3070  159.1512 C.ar    1  UNL1        0.0844
     11 N         143.3581  143.1814  160.3247 N.ar    1  UNL1       -0.2119
     12 C         142.3738  142.7139  161.3555 C.ar    1  UNL1        0.2211
     13 O         142.0445  143.5883  162.5290 O.3     1  UNL1       -0.4563
     14 C         142.9956  144.6695  162.9490 C.3     1  UNL1        0.2542
     15 C         141.0036  139.6524  163.0243 C.ar    1  UNL1        0.0245
     16 C         140.3211  138.3714  162.6458 C.ar    1  UNL1        0.0200
     17 C         140.5903  137.1191  163.4264 C.ar    1  UNL1        0.1019
     18 N         141.5420  137.1478  164.5855 N.ar    1  UNL1       -0.2076
     19 C         142.2245  138.4288  164.9639 C.ar    1  UNL1        0.2598
     20 C         141.9553  139.6811  164.1833 C.ar    1  UNL1        0.1879
     21 O         143.1762  138.4575  166.1229 O.3     1  UNL1       -0.4541
     22 C         142.7967  139.1694  167.3875 C.3     1  UNL1        0.2543
     23 O         142.6378  140.9621  164.5618 O.3     1  UNL1       -0.4670
     24 C         144.0836  141.1707  164.2209 C.3     1  UNL1        0.2527
     25 C         139.4808  141.6895  162.4940 C.3     1  UNL1        0.1175
     26 O         139.9574  142.0088  163.8799 O.3     1  UNL1       -0.3819
     27 H         139.2959  142.5561  164.3313 H       1  UNL1        0.2107
     28 C         138.5953  142.0945  158.6467 C.ar    1  UNL1        0.1913
     29 C         139.0719  142.4137  160.0326 C.ar    1  UNL1        0.0413
     30 C         139.0042  141.3702  161.1080 C.ar    1  UNL1        0.0248
     31 C         138.4600  140.0074  160.7974 C.ar    1  UNL1        0.1002
     32 N         137.9834  139.6882  159.4114 N.ar    1  UNL1       -0.2078
     33 C         138.0510  140.7317  158.3360 C.ar    1  UNL1        0.2601
     34 C         139.9070  143.9583  157.3994 C.3     1  UNL1        0.2527
     35 O         138.6630  143.1381  157.5713 O.3     1  UNL1       -0.4667
     36 O         137.5744  140.4124  156.9501 O.3     1  UNL1       -0.4541
     37 C         136.2330  140.8989  156.4876 C.3     1  UNL1        0.2543
     38 C         138.2273  142.4744  162.7442 C.3     1  UNL1        0.0492
     39 C         138.0062  143.1303  164.0750 C.3     1  UNL1        0.0750
     40 N         138.5554  144.5016  164.3357 N.3     1  UNL1       -0.2702
     41 C         139.1164  145.3122  163.2052 C.3     1  UNL1        0.0897
     42 C         138.5437  145.0622  165.7270 C.3     1  UNL1        0.0897
@<TRIPOS>BOND
     1    34    35    1
     2    35    28    1
     3    28    29   ar
     4    29    30   ar
     5    30    25    1
     6    25    26    1
     7    25    38    1
     8    38    39    1
     9    39    40    1
    10    40    41    1
    11    40    42    1
    12    25     1    1
    13     1     2    1
    14     2     3   ar
    15     3     4   ar
    16     4     5   ar
    17     5     6   ar
    18     6     7    1
    19     6     8   ar
    20     8     9   ar
    21     9    10   ar
    22    10    11   ar
    23    11    12   ar
    24    12    13    1
    25    13    14    1
    26     1    15    1
    27    15    16   ar
    28    16    17   ar
    29    17    18   ar
    30    18    19   ar
    31    19    21    1
    32    21    22    1
    33    19    20   ar
    34    20    23    1
    35    23    24    1
    36    30    31   ar
    37    31    32   ar
    38    32    33   ar
    39    33    36    1
    40    36    37    1
    41    33    28   ar
    42    12     2   ar
    43    20    15   ar
    44    10     4   ar
    45    26    27    1
@<TRIPOS>MOLECULE
*****
 42 45 0 0 0
SMALL
GASTEIGER

@<TRIPOS>ATOM
      1 C         140.3548  140.9063  160.7093 C.3     1  UNL1        0.0808
      2 C         140.3196  139.9898  159.5223 C.ar    1  UNL1        0.0375
      3 C         141.4561  139.0437  159.2713 C.ar    1  UNL1        0.0023
      4 C         141.4209  138.1272  158.0843 C.ar    1  UNL1        0.0181
      5 C         142.5575  137.1810  157.8333 C.ar    1  UNL1        0.0082
      6 C         142.5222  136.2646  156.6463 C.ar    1  UNL1        0.0347
      7 BR        143.6588  135.3184  156.3953 Br      1  UNL1       -0.0490
      8 C         141.3504  136.2944  155.7103 C.ar    1  UNL1        0.0082
      9 C         140.2139  137.2406  155.9613 C.ar    1  UNL1        0.0197
     10 C         140.2492  138.1570  157.1483 C.ar    1  UNL1        0.0844
     11 N         139.1126  139.1032  157.3993 N.ar    1  UNL1       -0.2119
     12 C         139.1479  140.0196  158.5863 C.ar    1  UNL1        0.2211
     13 O         138.0113  140.9658  158.8373 O.3     1  UNL1       -0.4563
     14 C         137.6832  142.0279  157.8301 C.3     1  UNL1        0.2542
     15 C         140.5513  140.3435  162.0857 C.ar    1  UNL1        0.0245
     16 C         141.9115  140.3653  162.7178 C.ar    1  UNL1        0.0200
     17 C         142.1079  139.8025  164.0942 C.ar    1  UNL1        0.1019
     18 N         140.9442  139.2180  164.8387 N.ar    1  UNL1       -0.2076
     19 C         139.5841  139.1962  164.2066 C.ar    1  UNL1        0.2598
     20 C         139.3876  139.7590  162.8301 C.ar    1  UNL1        0.1879
     21 O         138.4204  138.6117  164.9510 O.3     1  UNL1       -0.4541
     22 C         138.2031  138.9577  166.3942 C.3     1  UNL1        0.2543
     23 O         138.0275  139.7373  162.1980 O.3     1  UNL1       -0.4670
     24 C         137.5204  138.4817  161.5525 C.3     1  UNL1        0.2527
     25 C         140.1935  142.3855  160.5198 C.3     1  UNL1        0.1175
     26 O         138.8304  142.3166  161.1419 O.3     1  UNL1       -0.3819
     27 H         138.4382  143.2036  161.1605 H       1  UNL1        0.2107
     28 C         144.1428  142.3621  160.1289 C.ar    1  UNL1        0.1913
     29 C         142.7796  142.2932  160.7511 C.ar    1  UNL1        0.0413
     30 C         141.5567  142.4544  159.8976 C.ar    1  UNL1        0.0248
     31 C         141.6969  142.6846  158.4221 C.ar    1  UNL1        0.1002
     32 N         143.0601  142.7535  157.8000 N.ar    1  UNL1       -0.2078
     33 C         144.2830  142.5923  158.6534 C.ar    1  UNL1        0.2601
     34 C         145.2269  142.0159  162.4645 C.3     1  UNL1        0.2527
     35 O         145.3658  142.2008  160.9824 O.3     1  UNL1       -0.4667
     36 O         145.6462  142.6612  158.0312 O.3     1  UNL1       -0.4541
     37 C         145.9439  141.8761  156.7883 C.3     1  UNL1        0.2543
     38 C         140.0323  143.8647  160.3303 C.3     1  UNL1        0.0492
     39 C         140.4430  144.8097  161.4204 C.3     1  UNL1        0.0750
     40 N         140.1132  144.4950  162.8494 N.3     1  UNL1       -0.2702
     41 C         141.1370  143.8405  163.7289 C.3     1  UNL1        0.0897
     42 C         138.7595  144.8348  163.3991 C.3     1  UNL1        0.0897
@<TRIPOS>BOND
     1    34    35    1
     2    35    28    1
     3    28    29   ar
     4    29    30   ar
     5    30    25    1
     6    25    26    1
     7    25    38    1
     8    38    39    1
     9    39    40    1
    10    40    41    1
    11    40    42    1
    12    25     1    1
    13     1     2    1
    14     2     3   ar
    15     3     4   ar
    16     4     5   ar
    17     5     6   ar
    18     6     7    1
    19     6     8   ar
    20     8     9   ar
    21     9    10   ar
    22    10    11   ar
    23    11    12   ar
    24    12    13    1
    25    13    14    1
    26     1    15    1
    27    15    16   ar
    28    16    17   ar
    29    17    18   ar
    30    18    19   ar
    31    19    21    1
    32    21    22    1
    33    19    20   ar
    34    20    23    1
    35    23    24    1
    36    30    31   ar
    37    31    32   ar
    38    32    33   ar
    39    33    36    1
    40    36    37    1
    41    33    28   ar
    42    12     2   ar
    43    20    15   ar
    44    10     4   ar
    45    26    27    1
@<TRIPOS>MOLECULE
*****
 42 45 0 0 0
SMALL
GASTEIGER

@<TRIPOS>ATOM
      1 C         141.6274  141.4997  159.0530 C.3     1  UNL1        0.0808
      2 C         141.3194  140.5117  160.1388 C.ar    1  UNL1        0.0375
      3 C         142.1877  140.4446  161.3601 C.ar    1  UNL1        0.0023
      4 C         141.8797  139.4565  162.4460 C.ar    1  UNL1        0.0181
      5 C         142.7479  139.3894  163.6673 C.ar    1  UNL1        0.0082
      6 C         142.4399  138.4014  164.7530 C.ar    1  UNL1        0.0347
      7 BR        143.3082  138.3343  165.9744 Br      1  UNL1       -0.0490
      8 C         141.2637  137.4805  164.6175 C.ar    1  UNL1        0.0082
      9 C         140.3954  137.5476  163.3962 C.ar    1  UNL1        0.0197
     10 C         140.7034  138.5356  162.3104 C.ar    1  UNL1        0.0844
     11 N         139.8352  138.6027  161.0891 N.ar    1  UNL1       -0.2119
     12 C         140.1432  139.5908  160.0033 C.ar    1  UNL1        0.2211
     13 O         139.2749  139.6579  158.7819 O.3     1  UNL1       -0.4563
     14 C         137.8757  140.1884  158.8847 C.3     1  UNL1        0.2542
     15 C         142.9700  141.4850  158.3843 C.ar    1  UNL1        0.0245
     16 C         143.9532  142.5858  158.6518 C.ar    1  UNL1        0.0200
     17 C         145.2958  142.5711  157.9832 C.ar    1  UNL1        0.1019
     18 N         145.6553  141.4555  157.0470 N.ar    1  UNL1       -0.2076
     19 C         144.6721  140.3548  156.7794 C.ar    1  UNL1        0.2598
     20 C         143.3294  140.3695  157.4482 C.ar    1  UNL1        0.1879
     21 O         145.0315  139.2393  155.8433 O.3     1  UNL1       -0.4541
     22 C         145.1582  139.5059  154.3726 C.3     1  UNL1        0.2543
     23 O         142.3462  139.2687  157.1806 O.3     1  UNL1       -0.4670
     24 C         142.5506  137.9151  157.7940 C.3     1  UNL1        0.2527
     25 C         140.5927  142.5024  158.6359 C.3     1  UNL1        0.1175
     26 O         140.6072  141.9391  157.2457 O.3     1  UNL1       -0.3819
     27 H         139.9795  142.4290  156.6918 H       1  UNL1        0.2107
     28 C         141.7651  144.3562  161.9433 C.ar    1  UNL1        0.1913
     29 C         141.7796  143.7929  160.5531 C.ar    1  UNL1        0.0413
     30 C         140.5782  143.0658  160.0260 C.ar    1  UNL1        0.0248
     31 C         139.3624  142.9020  160.8889 C.ar    1  UNL1        0.1002
     32 N         139.3479  143.4653  162.2791 N.ar    1  UNL1       -0.2078
     33 C         140.5492  144.1924  162.8062 C.ar    1  UNL1        0.2601
     34 C         144.1650  144.3117  162.9377 C.3     1  UNL1        0.2527
     35 O         142.9666  145.0834  162.4704 O.3     1  UNL1       -0.4667
     36 O         140.5347  144.7557  164.1964 O.3     1  UNL1       -0.4541
     37 C         139.2639  144.7538  164.9932 C.3     1  UNL1        0.2543
     38 C         139.5581  143.5051  158.2187 C.3     1  UNL1        0.0492
     39 C         139.7253  144.2665  156.9371 C.3     1  UNL1        0.0750
     40 N         140.3544  145.6282  156.9504 N.3     1  UNL1       -0.2702
     41 C         141.7873  145.7883  157.3638 C.3     1  UNL1        0.0897
     42 C         139.5505  146.8297  156.5501 C.3     1  UNL1        0.0897
@<TRIPOS>BOND
     1    34    35    1
     2    35    28    1
     3    28    29   ar
     4    29    30   ar
     5    30    25    1
     6    25    26    1
     7    25    38    1
     8    38    39    1
     9    39    40    1
    10    40    41    1
    11    40    42    1
    12    25     1    1
    13     1     2    1
    14     2     3   ar
    15     3     4   ar
    16     4     5   ar
    17     5     6   ar
    18     6     7    1
    19     6     8   ar
    20     8     9   ar
    21     9    10   ar
    22    10    11   ar
    23    11    12   ar
    24    12    13    1
    25    13    14    1
    26     1    15    1
    27    15    16   ar
    28    16    17   ar
    29    17    18   ar
    30    18    19   ar
    31    19    21    1
    32    21    22    1
    33    19    20   ar
    34    20    23    1
    35    23    24    1
    36    30    31   ar
    37    31    32   ar
    38    32    33   ar
    39    33    36    1
    40    36    37    1
    41    33    28   ar
    42    12     2   ar
    43    20    15   ar
    44    10     4   ar
    45    26    27    1
@<TRIPOS>MOLECULE
*****
 42 45 0 0 0
SMALL
GASTEIGER

@<TRIPOS>ATOM
      1 C         141.5025  140.6760  160.7553 C.3     1  UNL1        0.0808
      2 C         142.3148  140.4504  159.5146 C.ar    1  UNL1        0.0375
      3 C         143.4407  141.3816  159.1755 C.ar    1  UNL1        0.0023
      4 C         144.2530  141.1560  157.9348 C.ar    1  UNL1        0.0181
      5 C         145.3789  142.0873  157.5958 C.ar    1  UNL1        0.0082
      6 C         146.1911  141.8616  156.3551 C.ar    1  UNL1        0.0347
      7 BR        147.3170  142.7929  156.0160 Br      1  UNL1       -0.0490
      8 C         145.8774  140.7047  155.4534 C.ar    1  UNL1        0.0082
      9 C         144.7514  139.7734  155.7924 C.ar    1  UNL1        0.0197
     10 C         143.9392  139.9990  157.0331 C.ar    1  UNL1        0.0844
     11 N         142.8133  139.0677  157.3722 N.ar    1  UNL1       -0.2119
     12 C         142.0011  139.2934  158.6129 C.ar    1  UNL1        0.2211
     13 O         140.8751  138.3621  158.9519 O.3     1  UNL1       -0.4563
     14 C         139.7811  138.1141  157.9560 C.3     1  UNL1        0.2542
     15 C         142.1884  140.9226  162.0663 C.ar    1  UNL1        0.0245
     16 C         142.2493  142.3107  162.6315 C.ar    1  UNL1        0.0200
     17 C         142.9353  142.5572  163.9424 C.ar    1  UNL1        0.1019
     18 N         143.5604  141.4157  164.6882 N.ar    1  UNL1       -0.2076
     19 C         143.4995  140.0276  164.1230 C.ar    1  UNL1        0.2598
     20 C         142.8135  139.7810  162.8120 C.ar    1  UNL1        0.1879
     21 O         144.1245  138.8860  164.8688 O.3     1  UNL1       -0.4541
     22 C         143.5379  138.4308  166.1721 C.3     1  UNL1        0.2543
     23 O         142.7526  138.3929  162.2468 O.3     1  UNL1       -0.4670
     24 C         143.9119  137.8500  161.4649 C.3     1  UNL1        0.2527
     25 C         140.0043  140.6551  160.6850 C.3     1  UNL1        0.1175
     26 O         139.9848  139.3826  161.4789 O.3     1  UNL1       -0.3819
     27 H         139.0672  139.0955  161.6072 H       1  UNL1        0.2107
     28 C         140.2333  144.5153  159.7928 C.ar    1  UNL1        0.1913
     29 C         140.2138  143.2428  160.5867 C.ar    1  UNL1        0.0413
     30 C         140.0238  141.9276  159.8911 C.ar    1  UNL1        0.0248
     31 C         139.8532  141.8849  158.4014 C.ar    1  UNL1        0.1002
     32 N         139.8727  143.1574  157.6075 N.ar    1  UNL1       -0.2078
     33 C         140.0627  144.4726  158.3032 C.ar    1  UNL1        0.2601
     34 C         140.0133  145.9864  161.9230 C.3     1  UNL1        0.2527
     35 O         140.4233  145.8306  160.4886 O.3     1  UNL1       -0.4667
     36 O         140.0822  145.7451  157.5092 O.3     1  UNL1       -0.4541
     37 C         141.2840  146.0951  156.6828 C.3     1  UNL1        0.2543
     38 C         138.5061  140.6341  160.6147 C.3     1  UNL1        0.0492
     39 C         137.7055  140.1948  161.8047 C.3     1  UNL1        0.0750
     40 N         137.8034  140.9523  163.0957 N.3     1  UNL1       -0.2702
     41 C         138.1757  140.2354  164.3595 C.3     1  UNL1        0.0897
     42 C         137.5291  142.4268  163.1227 C.3     1  UNL1        0.0897
@<TRIPOS>BOND
     1    34    35    1
     2    35    28    1
     3    28    29   ar
     4    29    30   ar
     5    30    25    1
     6    25    26    1
     7    25    38    1
     8    38    39    1
     9    39    40    1
    10    40    41    1
    11    40    42    1
    12    25     1    1
    13     1     2    1
    14     2     3   ar
    15     3     4   ar
    16     4     5   ar
    17     5     6   ar
    18     6     7    1
    19     6     8   ar
    20     8     9   ar
    21     9    10   ar
    22    10    11   ar
    23    11    12   ar
    24    12    13    1
    25    13    14    1
    26     1    15    1
    27    15    16   ar
    28    16    17   ar
    29    17    18   ar
    30    18    19   ar
    31    19    21    1
    32    21    22    1
    33    19    20   ar
    34    20    23    1
    35    23    24    1
    36    30    31   ar
    37    31    32   ar
    38    32    33   ar
    39    33    36    1
    40    36    37    1
    41    33    28   ar
    42    12     2   ar
    43    20    15   ar
    44    10     4   ar
    45    26    27    1
@<TRIPOS>MOLECULE
*****
 42 45 0 0 0
SMALL
GASTEIGER

@<TRIPOS>ATOM
      1 C         141.4953  140.2800  161.1187 C.3     1  UNL1        0.0808
      2 C         141.8465  140.0217  162.5541 C.ar    1  UNL1        0.0375
      3 C         141.4896  141.0292  163.6065 C.ar    1  UNL1        0.0023
      4 C         141.8408  140.7710  165.0418 C.ar    1  UNL1        0.0181
      5 C         141.4840  141.7784  166.0942 C.ar    1  UNL1        0.0082
      6 C         141.8352  141.5202  167.5294 C.ar    1  UNL1        0.0347
      7 BR        141.4783  142.5277  168.5819 Br      1  UNL1       -0.0490
      8 C         142.5432  140.2544  167.9122 C.ar    1  UNL1        0.0082
      9 C         142.9001  139.2469  166.8598 C.ar    1  UNL1        0.0197
     10 C         142.5489  139.5052  165.4246 C.ar    1  UNL1        0.0844
     11 N         142.9057  138.4977  164.3721 N.ar    1  UNL1       -0.2119
     12 C         142.5546  138.7560  162.9369 C.ar    1  UNL1        0.2211
     13 O         142.9114  137.7485  161.8844 O.3     1  UNL1       -0.4563
     14 C         144.3163  137.6730  161.3641 C.3     1  UNL1        0.2542
     15 C         142.5586  140.7101  160.1522 C.ar    1  UNL1        0.0245
     16 C         143.3065  141.9901  160.3807 C.ar    1  UNL1        0.0200
     17 C         144.3698  142.4203  159.4141 C.ar    1  UNL1        0.1019
     18 N         144.6852  141.5704  158.2189 N.ar    1  UNL1       -0.2076
     19 C         143.9373  140.2904  157.9904 C.ar    1  UNL1        0.2598
     20 C         142.8740  139.8603  158.9571 C.ar    1  UNL1        0.1879
     21 O         144.2527  139.4406  156.7953 O.3     1  UNL1       -0.4541
     22 C         143.9090  139.9259  155.4183 C.3     1  UNL1        0.2543
     23 O         142.1260  138.5803  158.7286 O.3     1  UNL1       -0.4670
     24 C         141.1267  138.4842  157.6140 C.3     1  UNL1        0.2527
     25 C         140.0808  140.1080  160.6501 C.3     1  UNL1        0.1175
     26 O         140.1184  138.6671  161.0654 O.3     1  UNL1       -0.3819
     27 H         139.2641  138.2517  160.8692 H       1  UNL1        0.2107
     28 C         139.9868  144.0700  160.8600 C.ar    1  UNL1        0.1913
     29 C         140.0244  142.6291  161.2753 C.ar    1  UNL1        0.0413
     30 C         140.0433  141.5489  160.2348 C.ar    1  UNL1        0.0248
     31 C         140.0246  141.9095  158.7790 C.ar    1  UNL1        0.1002
     32 N         139.9870  143.3504  158.3636 N.ar    1  UNL1       -0.2078
     33 C         139.9681  144.4306  159.4042 C.ar    1  UNL1        0.2601
     34 C         140.4227  144.8527  163.2988 C.3     1  UNL1        0.2527
     35 O         139.9679  145.1502  161.9006 O.3     1  UNL1       -0.4667
     36 O         139.9306  145.8715  158.9889 O.3     1  UNL1       -0.4541
     37 C         140.0945  146.2401  157.5442 C.3     1  UNL1        0.2543
     38 C         138.6663  139.9361  160.1815 C.3     1  UNL1        0.0492
     39 C         137.5800  139.6335  161.1707 C.3     1  UNL1        0.0750
     40 N         137.7292  140.0580  162.6016 N.3     1  UNL1       -0.2702
     41 C         137.2998  141.4314  163.0251 C.3     1  UNL1        0.0897
     42 C         138.3078  139.1091  163.6090 C.3     1  UNL1        0.0897
@<TRIPOS>BOND
     1    34    35    1
     2    35    28    1
     3    28    29   ar
     4    29    30   ar
     5    30    25    1
     6    25    26    1
     7    25    38    1
     8    38    39    1
     9    39    40    1
    10    40    41    1
    11    40    42    1
    12    25     1    1
    13     1     2    1
    14     2     3   ar
    15     3     4   ar
    16     4     5   ar
    17     5     6   ar
    18     6     7    1
    19     6     8   ar
    20     8     9   ar
    21     9    10   ar
    22    10    11   ar
    23    11    12   ar
    24    12    13    1
    25    13    14    1
    26     1    15    1
    27    15    16   ar
    28    16    17   ar
    29    17    18   ar
    30    18    19   ar
    31    19    21    1
    32    21    22    1
    33    19    20   ar
    34    20    23    1
    35    23    24    1
    36    30    31   ar
    37    31    32   ar
    38    32    33   ar
    39    33    36    1
    40    36    37    1
    41    33    28   ar
    42    12     2   ar
    43    20    15   ar
    44    10     4   ar
    45    26    27    1
