@<TRIPOS>MOLECULE
*****
 23 25 0 0 0
SMALL
GASTEIGER

@<TRIPOS>ATOM
      1 C         140.3208  140.6331  165.5462 C.ar    1  UNL1       -0.0143
      2 C         139.4642  139.5864  164.8976 C.ar    1  UNL1        0.0051
      3 S         138.2584  140.2667  164.3204 S.2     1  UNL1       -0.0915
      4 C         138.3697  141.7338  164.6123 C.ar    1  UNL1        0.0288
      5 C         137.4750  142.8928  164.2861 C.ar    1  UNL1        0.0065
      6 C         137.8551  144.2782  164.7175 C.ar    1  UNL1        0.0005
      7 C         139.1297  144.5046  165.4751 C.ar    1  UNL1        0.0000
      8 C         140.0243  143.3457  165.8013 C.ar    1  UNL1        0.0002
      9 C         139.6443  141.9603  165.3699 C.ar    1  UNL1        0.0025
     10 C         141.6366  140.0015  167.6956 C.3     1  UNL1        0.0111
     11 C         141.6248  140.3946  166.2480 C.3     1  UNL1        0.0649
     12 C         142.9171  140.5491  165.5024 C.ar    1  UNL1        0.0900
     13 N         143.4375  141.9184  165.1792 N.ar    1  UNL1       -0.2456
     14 C         144.7298  142.0729  164.4335 C.ar    1  UNL1        0.0986
     15 C         145.5018  140.8581  164.0110 C.ar    1  UNL1        0.0230
     16 C         144.9814  139.4890  164.3341 C.ar    1  UNL1        0.0325
     17 C         143.6891  139.3344  165.0798 C.ar    1  UNL1        0.1539
     18 F         143.1688  137.9651  165.4029 F       1  UNL1       -0.2029
     19 C         139.7613  138.1174  164.8369 C.3     1  UNL1        0.0499
     20 C         139.4772  137.3460  163.5822 C.3     1  UNL1        0.0774
     21 N         140.1635  137.7181  162.3014 N.3     1  UNL1       -0.2700
     22 C         139.3517  138.0977  161.0984 C.3     1  UNL1        0.0897
     23 C         141.6614  137.7106  162.2234 C.3     1  UNL1        0.0897
@<TRIPOS>BOND
     1    11    10    1
     2    11    12    1
     3    12    13   ar
     4    13    14   ar
     5    14    15   ar
     6    15    16   ar
     7    16    17   ar
     8    17    18    1
     9    11     1    1
    10     1     2   ar
    11     2    19    1
    12    19    20    1
    13    20    21    1
    14    21    22    1
    15    21    23    1
    16     2     3   ar
    17     3     4   ar
    18     4     5   ar
    19     5     6   ar
    20     6     7   ar
    21     7     8   ar
    22     8     9   ar
    23    17    12   ar
    24     9     1   ar
    25     9     4   ar
@<TRIPOS>MOLECULE
*****
 23 25 0 0 0
SMALL
GASTEIGER

@<TRIPOS>ATOM
      1 C         142.2250  140.4259  165.5667 C.ar    1  UNL1       -0.0143
      2 C         143.1522  139.5229  164.8085 C.ar    1  UNL1        0.0051
      3 S         142.3957  138.2789  164.4481 S.2     1  UNL1       -0.0915
      4 C         141.0009  138.4130  164.9835 C.ar    1  UNL1        0.0288
      5 C         139.8133  137.4983  164.9307 C.ar    1  UNL1        0.0065
      6 C         138.5202  137.9106  165.5694 C.ar    1  UNL1        0.0005
      7 C         138.4147  139.2376  166.2608 C.ar    1  UNL1        0.0000
      8 C         139.6023  140.1523  166.3135 C.ar    1  UNL1        0.0002
      9 C         140.8954  139.7400  165.6748 C.ar    1  UNL1        0.0025
     10 C         143.0268  141.9120  167.5413 C.3     1  UNL1        0.0111
     11 C         142.5673  141.7776  166.1197 C.3     1  UNL1        0.0649
     12 C         142.4501  142.9949  165.2513 C.ar    1  UNL1        0.0900
     13 N         141.0988  143.4753  164.8114 N.ar    1  UNL1       -0.2456
     14 C         140.9816  144.6926  163.9429 C.ar    1  UNL1        0.0986
     15 C         142.2157  145.4297  163.5142 C.ar    1  UNL1        0.0230
     16 C         143.5669  144.9494  163.9540 C.ar    1  UNL1        0.0325
     17 C         143.6842  143.7320  164.8225 C.ar    1  UNL1        0.1539
     18 F         145.0354  143.2518  165.2623 F       1  UNL1       -0.2029
     19 C         144.5845  139.8130  164.4702 C.3     1  UNL1        0.0499
     20 C         144.9194  140.6016  163.2390 C.3     1  UNL1        0.0774
     21 N         144.0125  140.5497  162.0453 N.3     1  UNL1       -0.2700
     22 C         143.0522  141.6720  161.7837 C.3     1  UNL1        0.0897
     23 C         144.0659  139.3756  161.1133 C.3     1  UNL1        0.0897
@<TRIPOS>BOND
     1    11    10    1
     2    11    12    1
     3    12    13   ar
     4    13    14   ar
     5    14    15   ar
     6    15    16   ar
     7    16    17   ar
     8    17    18    1
     9    11     1    1
    10     1     2   ar
    11     2    19    1
    12    19    20    1
    13    20    21    1
    14    21    22    1
    15    21    23    1
    16     2     3   ar
    17     3     4   ar
    18     4     5   ar
    19     5     6   ar
    20     6     7   ar
    21     7     8   ar
    22     8     9   ar
    23    17    12   ar
    24     9     1   ar
    25     9     4   ar
@<TRIPOS>MOLECULE
*****
 23 25 0 0 0
SMALL
GASTEIGER

@<TRIPOS>ATOM
      1 C         139.6782  140.6448  165.2548 C.ar    1  UNL1       -0.0143
      2 C         138.8190  139.7293  164.4340 C.ar    1  UNL1        0.0051
      3 S         137.9393  140.5764  163.5630 S.2     1  UNL1       -0.0915
      4 C         138.2548  142.0154  163.8454 C.ar    1  UNL1        0.0288
      5 C         137.7024  143.2926  163.2856 C.ar    1  UNL1        0.0065
      6 C         138.2247  144.6121  163.7714 C.ar    1  UNL1        0.0005
      7 C         139.2994  144.6544  164.8169 C.ar    1  UNL1        0.0000
      8 C         139.8518  143.3772  165.3767 C.ar    1  UNL1        0.0002
      9 C         139.3295  142.0577  164.8910 C.ar    1  UNL1        0.0025
     10 C         141.8959  139.4187  165.8280 C.3     1  UNL1        0.0111
     11 C         140.7057  140.2217  166.2624 C.3     1  UNL1        0.0649
     12 C         140.5431  140.6016  167.7042 C.ar    1  UNL1        0.0900
     13 N         141.5518  141.4956  168.3627 N.ar    1  UNL1       -0.2456
     14 C         141.3892  141.8755  169.8046 C.ar    1  UNL1        0.0986
     15 C         140.2179  141.3615  170.5882 C.ar    1  UNL1        0.0230
     16 C         139.2093  140.4676  169.9298 C.ar    1  UNL1        0.0325
     17 C         139.3718  140.0877  168.4879 C.ar    1  UNL1        0.1539
     18 F         138.3631  139.1938  167.8295 F       1  UNL1       -0.2029
     19 C         138.8364  138.2300  164.4768 C.3     1  UNL1        0.0499
     20 C         138.9007  137.4440  163.2009 C.3     1  UNL1        0.0774
     21 N         139.9597  137.7506  162.1838 N.3     1  UNL1       -0.2700
     22 C         139.5695  138.2027  160.8077 C.3     1  UNL1        0.0897
     23 C         141.4088  137.6050  162.5426 C.3     1  UNL1        0.0897
@<TRIPOS>BOND
     1    11    10    1
     2    11    12    1
     3    12    13   ar
     4    13    14   ar
     5    14    15   ar
     6    15    16   ar
     7    16    17   ar
     8    17    18    1
     9    11     1    1
    10     1     2   ar
    11     2    19    1
    12    19    20    1
    13    20    21    1
    14    21    22    1
    15    21    23    1
    16     2     3   ar
    17     3     4   ar
    18     4     5   ar
    19     5     6   ar
    20     6     7   ar
    21     7     8   ar
    22     8     9   ar
    23    17    12   ar
    24     9     1   ar
    25     9     4   ar
@<TRIPOS>MOLECULE
*****
 23 25 0 0 0
SMALL
GASTEIGER

@<TRIPOS>ATOM
      1 C         140.4768  142.3420  165.3726 C.ar    1  UNL1       -0.0143
      2 C         139.4032  143.0455  164.5965 C.ar    1  UNL1        0.0051
      3 S         140.0337  144.1989  163.8739 S.2     1  UNL1       -0.0915
      4 C         141.4971  144.2082  164.2034 C.ar    1  UNL1        0.0288
      5 C         142.6156  145.1134  163.7797 C.ar    1  UNL1        0.0065
      6 C         144.0079  144.8709  164.2822 C.ar    1  UNL1        0.0005
      7 C         144.2817  143.7233  165.2084 C.ar    1  UNL1        0.0000
      8 C         143.1632  142.8181  165.6322 C.ar    1  UNL1        0.0002
      9 C         141.7709  143.0605  165.1296 C.ar    1  UNL1        0.0025
     10 C         140.0506  141.2942  167.7115 C.3     1  UNL1        0.0111
     11 C         140.2893  141.1323  166.2394 C.3     1  UNL1        0.0649
     12 C         140.3405  139.7608  165.6344 C.ar    1  UNL1        0.0900
     13 N         141.6402  139.2157  165.1206 N.ar    1  UNL1       -0.2456
     14 C         141.6915  137.8441  164.5155 C.ar    1  UNL1        0.0986
     15 C         140.4431  137.0175  164.4242 C.ar    1  UNL1        0.0230
     16 C         139.1435  137.5626  164.9380 C.ar    1  UNL1        0.0325
     17 C         139.0922  138.9341  165.5431 C.ar    1  UNL1        0.1539
     18 F         137.7926  139.4791  166.0568 F       1  UNL1       -0.2029
     19 C         137.9535  142.6629  164.5510 C.3     1  UNL1        0.0499
     20 C         137.4704  141.6743  163.5316 C.3     1  UNL1        0.0774
     21 N         138.2457  141.4636  162.2649 N.3     1  UNL1       -0.2700
     22 C         138.1200  142.4442  161.1367 C.3     1  UNL1        0.0897
     23 C         139.1466  140.2724  162.1263 C.3     1  UNL1        0.0897
@<TRIPOS>BOND
     1    11    10    1
     2    11    12    1
     3    12    13   ar
     4    13    14   ar
     5    14    15   ar
     6    15    16   ar
     7    16    17   ar
     8    17    18    1
     9    11     1    1
    10     1     2   ar
    11     2    19    1
    12    19    20    1
    13    20    21    1
    14    21    22    1
    15    21    23    1
    16     2     3   ar
    17     3     4   ar
    18     4     5   ar
    19     5     6   ar
    20     6     7   ar
    21     7     8   ar
    22     8     9   ar
    23    17    12   ar
    24     9     1   ar
    25     9     4   ar
@<TRIPOS>MOLECULE
*****
 23 25 0 0 0
SMALL
GASTEIGER

@<TRIPOS>ATOM
      1 C         141.6796  141.3451  165.3793 C.ar    1  UNL1       -0.0143
      2 C         141.1723  142.7415  165.1732 C.ar    1  UNL1        0.0051
      3 S         142.2418  143.5242  164.4705 S.2     1  UNL1       -0.0915
      4 C         143.4100  142.6114  164.2424 C.ar    1  UNL1        0.0288
      5 C         144.7453  142.8326  163.5958 C.ar    1  UNL1        0.0065
      6 C         145.7331  141.7070  163.5109 C.ar    1  UNL1        0.0005
      7 C         145.3857  140.3603  164.0726 C.ar    1  UNL1        0.0000
      8 C         144.0504  140.1391  164.7192 C.ar    1  UNL1        0.0002
      9 C         143.0626  141.2646  164.8041 C.ar    1  UNL1        0.0025
     10 C         140.2721  139.1676  165.2122 C.3     1  UNL1        0.0111
     11 C         140.9347  140.2256  166.0441 C.3     1  UNL1        0.0649
     12 C         140.8524  140.1639  167.5405 C.ar    1  UNL1        0.0900
     13 N         139.6309  140.6739  168.2461 N.ar    1  UNL1       -0.2456
     14 C         139.5486  140.6122  169.7426 C.ar    1  UNL1        0.0986
     15 C         140.6878  140.0405  170.5334 C.ar    1  UNL1        0.0230
     16 C         141.9092  139.5305  169.8278 C.ar    1  UNL1        0.0325
     17 C         141.9916  139.5922  168.3314 C.ar    1  UNL1        0.1539
     18 F         143.2131  139.0822  167.6258 F       1  UNL1       -0.2029
     19 C         139.8310  143.2637  165.5955 C.3     1  UNL1        0.0499
     20 C         139.2811  144.5113  164.9702 C.3     1  UNL1        0.0774
     21 N         138.8245  144.4957  163.5415 N.3     1  UNL1       -0.2700
     22 C         137.7110  143.5833  163.1199 C.3     1  UNL1        0.0897
     23 C         139.4812  145.3926  162.5344 C.3     1  UNL1        0.0897
@<TRIPOS>BOND
     1    11    10    1
     2    11    12    1
     3    12    13   ar
     4    13    14   ar
     5    14    15   ar
     6    15    16   ar
     7    16    17   ar
     8    17    18    1
     9    11     1    1
    10     1     2   ar
    11     2    19    1
    12    19    20    1
    13    20    21    1
    14    21    22    1
    15    21    23    1
    16     2     3   ar
    17     3     4   ar
    18     4     5   ar
    19     5     6   ar
    20     6     7   ar
    21     7     8   ar
    22     8     9   ar
    23    17    12   ar
    24     9     1   ar
    25     9     4   ar
@<TRIPOS>MOLECULE
*****
 23 25 0 0 0
SMALL
GASTEIGER

@<TRIPOS>ATOM
      1 C         140.4140  139.9642  166.5222 C.ar    1  UNL1       -0.0143
      2 C         141.5999  139.1473  166.1025 C.ar    1  UNL1        0.0051
      3 S         142.7962  139.6444  166.8588 S.2     1  UNL1       -0.0915
      4 C         142.3496  140.7686  167.7458 C.ar    1  UNL1        0.0288
      5 C         143.0933  141.6377  168.7160 C.ar    1  UNL1        0.0065
      6 C         142.3647  142.7045  169.4783 C.ar    1  UNL1        0.0005
      7 C         140.8924  142.9022  169.2703 C.ar    1  UNL1        0.0000
      8 C         140.1487  142.0330  168.3001 C.ar    1  UNL1        0.0002
      9 C         140.8773  140.9662  167.5378 C.ar    1  UNL1        0.0025
     10 C         138.0663  138.8659  166.7027 C.3     1  UNL1        0.0111
     11 C         139.0110  139.8068  166.0154 C.3     1  UNL1        0.0649
     12 C         138.5527  140.5902  164.8212 C.ar    1  UNL1        0.0900
     13 N         138.4324  142.0831  164.9046 N.ar    1  UNL1       -0.2456
     14 C         137.9740  142.8666  163.7104 C.ar    1  UNL1        0.0986
     15 C         137.6359  142.1571  162.4328 C.ar    1  UNL1        0.0230
     16 C         137.7561  140.6643  162.3493 C.ar    1  UNL1        0.0325
     17 C         138.2145  139.8808  163.5435 C.ar    1  UNL1        0.1539
     18 F         138.3348  138.3880  163.4600 F       1  UNL1       -0.2029
     19 C         141.5912  138.0296  165.1023 C.3     1  UNL1        0.0499
     20 C         141.6494  138.3356  163.6350 C.3     1  UNL1        0.0774
     21 N         142.4618  139.4965  163.1427 N.3     1  UNL1       -0.2700
     22 C         143.9523  139.3735  163.0271 C.3     1  UNL1        0.0897
     23 C         141.7837  140.7804  162.7661 C.3     1  UNL1        0.0897
@<TRIPOS>BOND
     1    11    10    1
     2    11    12    1
     3    12    13   ar
     4    13    14   ar
     5    14    15   ar
     6    15    16   ar
     7    16    17   ar
     8    17    18    1
     9    11     1    1
    10     1     2   ar
    11     2    19    1
    12    19    20    1
    13    20    21    1
    14    21    22    1
    15    21    23    1
    16     2     3   ar
    17     3     4   ar
    18     4     5   ar
    19     5     6   ar
    20     6     7   ar
    21     7     8   ar
    22     8     9   ar
    23    17    12   ar
    24     9     1   ar
    25     9     4   ar
@<TRIPOS>MOLECULE
*****
 23 25 0 0 0
SMALL
GASTEIGER

@<TRIPOS>ATOM
      1 C         141.2982  141.3588  165.1104 C.ar    1  UNL1       -0.0143
      2 C         141.0890  142.8433  165.1614 C.ar    1  UNL1        0.0051
      3 S         142.3847  143.5066  164.7994 S.2     1  UNL1       -0.0915
      4 C         143.3947  142.4322  164.5247 C.ar    1  UNL1        0.0288
      5 C         144.8390  142.4910  164.1244 C.ar    1  UNL1        0.0065
      6 C         145.6119  141.2225  163.9163 C.ar    1  UNL1        0.0005
      7 C         144.9404  139.8950  164.1085 C.ar    1  UNL1        0.0000
      8 C         143.4960  139.8361  164.5089 C.ar    1  UNL1        0.0002
      9 C         142.7232  141.1047  164.7169 C.ar    1  UNL1        0.0025
     10 C         139.9902  139.9022  166.8186 C.3     1  UNL1        0.0111
     11 C         140.2640  140.3121  165.4018 C.3     1  UNL1        0.0649
     12 C         139.5035  139.6754  164.2766 C.ar    1  UNL1        0.0900
     13 N         138.5758  140.5018  163.4361 N.ar    1  UNL1       -0.2456
     14 C         137.8153  139.8651  162.3109 C.ar    1  UNL1        0.0986
     15 C         137.9825  138.4019  162.0261 C.ar    1  UNL1        0.0230
     16 C         138.9102  137.5755  162.8666 C.ar    1  UNL1        0.0325
     17 C         139.6707  138.2122  163.9918 C.ar    1  UNL1        0.1539
     18 F         140.5984  137.3857  164.8322 F       1  UNL1       -0.2029
     19 C         139.8088  143.5417  165.5127 C.3     1  UNL1        0.0499
     20 C         139.4239  144.8048  164.8012 C.3     1  UNL1        0.0774
     21 N         139.0233  144.7596  163.3564 N.3     1  UNL1       -0.2700
     22 C         137.7732  144.0385  162.9470 C.3     1  UNL1        0.0897
     23 C         139.8726  145.4352  162.3210 C.3     1  UNL1        0.0897
@<TRIPOS>BOND
     1    11    10    1
     2    11    12    1
     3    12    13   ar
     4    13    14   ar
     5    14    15   ar
     6    15    16   ar
     7    16    17   ar
     8    17    18    1
     9    11     1    1
    10     1     2   ar
    11     2    19    1
    12    19    20    1
    13    20    21    1
    14    21    22    1
    15    21    23    1
    16     2     3   ar
    17     3     4   ar
    18     4     5   ar
    19     5     6   ar
    20     6     7   ar
    21     7     8   ar
    22     8     9   ar
    23    17    12   ar
    24     9     1   ar
    25     9     4   ar
@<TRIPOS>MOLECULE
*****
 23 25 0 0 0
SMALL
GASTEIGER

@<TRIPOS>ATOM
      1 C         140.1941  140.1803  165.9736 C.ar    1  UNL1       -0.0143
      2 C         139.6731  140.8969  164.7632 C.ar    1  UNL1        0.0051
      3 S         140.7487  140.8835  163.7179 S.2     1  UNL1       -0.0915
      4 C         141.9345  140.1586  164.2821 C.ar    1  UNL1        0.0288
      5 C         143.2821  139.8381  163.7066 C.ar    1  UNL1        0.0065
      6 C         144.2869  139.0831  164.5252 C.ar    1  UNL1        0.0005
      7 C         143.9441  138.6485  165.9194 C.ar    1  UNL1        0.0000
      8 C         142.5966  138.9690  166.4949 C.ar    1  UNL1        0.0002
      9 C         141.5918  139.7240  165.6763 C.ar    1  UNL1        0.0025
     10 C         138.2241  139.0922  167.2719 C.3     1  UNL1        0.0111
     11 C         139.4484  139.9589  167.2562 C.3     1  UNL1        0.0649
     12 C         139.9269  140.6040  168.5229 C.ar    1  UNL1        0.0900
     13 N         140.0673  139.7879  169.7737 N.ar    1  UNL1       -0.2456
     14 C         140.5457  140.4330  171.0405 C.ar    1  UNL1        0.0986
     15 C         140.8839  141.8943  171.0566 C.ar    1  UNL1        0.0230
     16 C         140.7435  142.7104  169.8060 C.ar    1  UNL1        0.0325
     17 C         140.2650  142.0653  168.5391 C.ar    1  UNL1        0.1539
     18 F         140.1247  142.8816  167.2885 F       1  UNL1       -0.2029
     19 C         138.3149  141.5179  164.6229 C.3     1  UNL1        0.0499
     20 C         138.1852  142.9954  164.3994 C.3     1  UNL1        0.0774
     21 N         138.3379  143.5614  163.0187 N.3     1  UNL1       -0.2700
     22 C         138.8872  144.9447  162.8317 C.3     1  UNL1        0.0897
     23 C         137.9414  142.7442  161.8251 C.3     1  UNL1        0.0897
@<TRIPOS>BOND
     1    11    10    1
     2    11    12    1
     3    12    13   ar
     4    13    14   ar
     5    14    15   ar
     6    15    16   ar
     7    16    17   ar
     8    17    18    1
     9    11     1    1
    10     1     2   ar
    11     2    19    1
    12    19    20    1
    13    20    21    1
    14    21    22    1
    15    21    23    1
    16     2     3   ar
    17     3     4   ar
    18     4     5   ar
    19     5     6   ar
    20     6     7   ar
    21     7     8   ar
    22     8     9   ar
    23    17    12   ar
    24     9     1   ar
    25     9     4   ar
@<TRIPOS>MOLECULE
*****
 23 25 0 0 0
SMALL
GASTEIGER

@<TRIPOS>ATOM
      1 C         141.6909  140.2213  165.6227 C.ar    1  UNL1       -0.0143
      2 C         142.4360  139.3851  164.6249 C.ar    1  UNL1        0.0051
      3 S         141.6031  138.1755  164.3199 S.2     1  UNL1       -0.0915
      4 C         140.3433  138.2640  165.1292 C.ar    1  UNL1        0.0288
      5 C         139.1538  137.3566  165.2370 C.ar    1  UNL1        0.0065
      6 C         138.0185  137.7137  166.1500 C.ar    1  UNL1        0.0005
      7 C         138.0727  138.9781  166.9552 C.ar    1  UNL1        0.0000
      8 C         139.2622  139.8855  166.8474 C.ar    1  UNL1        0.0002
      9 C         140.3975  139.5284  165.9344 C.ar    1  UNL1        0.0025
     10 C         142.6643  141.5720  167.6173 C.3     1  UNL1        0.0111
     11 C         142.1572  141.5220  166.2064 C.3     1  UNL1        0.0649
     12 C         142.1166  142.7727  165.3794 C.ar    1  UNL1        0.0900
     13 N         143.3943  143.4071  164.9155 N.ar    1  UNL1       -0.2456
     14 C         143.3537  144.6578  164.0885 C.ar    1  UNL1        0.0986
     15 C         142.0353  145.2741  163.7252 C.ar    1  UNL1        0.0230
     16 C         140.7576  144.6398  164.1889 C.ar    1  UNL1        0.0325
     17 C         140.7982  143.3891  165.0160 C.ar    1  UNL1        0.1539
     18 F         139.5205  142.7548  165.4797 F       1  UNL1       -0.2029
     19 C         143.7783  139.7029  164.0355 C.3     1  UNL1        0.0499
     20 C         143.8704  140.3534  162.6871 C.3     1  UNL1        0.0774
     21 N         144.8442  141.4712  162.4586 N.3     1  UNL1       -0.2700
     22 C         144.7052  142.3521  161.2524 C.3     1  UNL1        0.0897
     23 C         145.9569  141.7082  163.4362 C.3     1  UNL1        0.0897
@<TRIPOS>BOND
     1    11    10    1
     2    11    12    1
     3    12    13   ar
     4    13    14   ar
     5    14    15   ar
     6    15    16   ar
     7    16    17   ar
     8    17    18    1
     9    11     1    1
    10     1     2   ar
    11     2    19    1
    12    19    20    1
    13    20    21    1
    14    21    22    1
    15    21    23    1
    16     2     3   ar
    17     3     4   ar
    18     4     5   ar
    19     5     6   ar
    20     6     7   ar
    21     7     8   ar
    22     8     9   ar
    23    17    12   ar
    24     9     1   ar
    25     9     4   ar
