@<TRIPOS>MOLECULE
*****
 28 31 0 0 0
SMALL
GASTEIGER

@<TRIPOS>ATOM
      1 C         139.9635  137.2643  156.7213 C.ar    1  UNL1        0.1547
      2 C         139.8417  138.1812  157.9021 C.ar    1  UNL1        0.0384
      3 C         141.0613  138.5523  158.6925 C.ar    1  UNL1        0.0034
      4 C         142.4028  138.0064  158.3020 C.ar    1  UNL1        0.0017
      5 C         142.5246  137.0895  157.1212 C.ar    1  UNL1        0.0206
      6 C         141.3050  136.7185  156.3308 C.ar    1  UNL1        0.0994
      7 N         141.4267  135.8015  155.1499 N.ar    1  UNL1       -0.2839
      8 C         141.5647  136.2230  153.7170 C.ar    1  UNL1        0.1826
      9 N         141.6552  134.9842  152.8761 N.ar    1  UNL1       -0.2280
     10 C         141.5731  133.7970  153.7894 C.ar    1  UNL1        0.0786
     11 C         141.6234  132.3575  153.3709 C.3     1  UNL1        0.0538
     12 C         141.4320  134.3022  155.1947 C.ar    1  UNL1        0.0963
     13 C         138.2595  137.7928  154.8326 C.3     1  UNL1        0.2525
     14 O         138.7438  136.8932  155.9309 O.3     1  UNL1       -0.4700
     15 C         140.9395  139.4692  159.8734 C.2     1  UNL1        0.0079
     16 C         139.6024  140.0367  160.2476 C.2     1  UNL1        0.0937
     17 C         139.4806  140.9536  161.4285 C.2     1  UNL1        0.3699
     18 N         140.1164  140.5821  162.7352 N.2     1  UNL1       -0.0293
     19 C         139.9946  141.4990  163.9161 C.2     1  UNL1        0.2254
     20 S         140.5109  141.4003  165.3209 S.3     1  UNL1       -0.0648
     21 C         140.0724  142.6278  166.0633 C.3     1  UNL1        0.0740
     22 C         140.3692  142.9426  167.4995 C.3     1  UNL1        0.0166
     23 C         139.2852  143.4851  165.1171 C.2     1  UNL1       -0.0230
     24 C         138.6564  144.8078  165.4411 C.3     1  UNL1        0.0276
     25 C         139.2370  142.7875  163.7901 C.2     1  UNL1        0.1239
     26 C         138.6013  143.1591  162.4833 C.2     1  UNL1        0.3791
     27 O         137.8437  144.4476  162.3574 O.2     1  UNL1       -0.2376
     28 N         138.7231  142.2421  161.3025 N.am    1  UNL1        0.0364
@<TRIPOS>BOND
     1    13    14    1
     2    14     1    1
     3     1     2   ar
     4     2     3   ar
     5     3    15    1
     6    15    16    2
     7    16    17    1
     8    17    18    1
     9    18    19    2
    10    19    20    1
    11    20    21    1
    12    21    22    1
    13    21    23    1
    14    23    24    1
    15    23    25    2
    16    25    26    1
    17    26    27    2
    18    26    28    1
    19     3     4   ar
    20     4     5   ar
    21     5     6   ar
    22     6     7    1
    23     7     8   ar
    24     8     9   ar
    25     9    10   ar
    26    10    11    1
    27    10    12   ar
    28     6     1   ar
    29    12     7   ar
    30    28    17    2
    31    25    19    1
@<TRIPOS>MOLECULE
*****
 28 31 0 0 0
SMALL
GASTEIGER

@<TRIPOS>ATOM
      1 C         140.2137  138.6138  158.4482 C.ar    1  UNL1        0.1547
      2 C         140.0140  139.0453  159.8708 C.ar    1  UNL1        0.0384
      3 C         141.1187  138.8691  160.8700 C.ar    1  UNL1        0.0034
      4 C         142.4230  138.2614  160.4467 C.ar    1  UNL1        0.0017
      5 C         142.6228  137.8298  159.0241 C.ar    1  UNL1        0.0206
      6 C         141.5181  138.0060  158.0249 C.ar    1  UNL1        0.0994
      7 N         141.7177  137.5744  156.6022 N.ar    1  UNL1       -0.2839
      8 C         141.9584  138.4807  155.4314 C.ar    1  UNL1        0.1826
      9 N         142.1012  137.6273  154.2062 N.ar    1  UNL1       -0.2280
     10 C         141.9488  136.1934  154.6197 C.ar    1  UNL1        0.0786
     11 C         142.0207  135.0015  153.7119 C.3     1  UNL1        0.0538
     12 C         141.7118  136.1608  156.1005 C.ar    1  UNL1        0.0963
     13 C         138.8624  140.1352  156.8328 C.3     1  UNL1        0.2525
     14 O         139.1090  138.7899  157.4488 O.3     1  UNL1       -0.4700
     15 C         140.9190  139.3007  162.2927 C.2     1  UNL1        0.0079
     16 C         139.9629  138.5549  163.1756 C.2     1  UNL1        0.0937
     17 C         139.7632  138.9865  164.5983 C.2     1  UNL1        0.3699
     18 N         140.6863  139.9969  165.2121 N.2     1  UNL1       -0.0293
     19 C         140.4866  140.4284  166.6347 C.2     1  UNL1        0.2254
     20 S         141.2308  141.3991  167.5030 S.3     1  UNL1       -0.0648
     21 C         140.5679  141.4202  168.8484 C.3     1  UNL1        0.0740
     22 C         140.9856  142.2527  170.0241 C.3     1  UNL1        0.0166
     23 C         139.4141  140.4624  168.8116 C.2     1  UNL1       -0.0230
     24 C         138.4753  140.1691  169.9441 C.3     1  UNL1        0.0276
     25 C         139.3638  139.8495  167.4435 C.2     1  UNL1        0.1239
     26 C         138.4407  138.8391  166.8297 C.2     1  UNL1        0.3791
     27 O         137.3179  138.2601  167.6385 O.2     1  UNL1       -0.2376
     28 N         138.6404  138.4075  165.4070 N.am    1  UNL1        0.0364
@<TRIPOS>BOND
     1    13    14    1
     2    14     1    1
     3     1     2   ar
     4     2     3   ar
     5     3    15    1
     6    15    16    2
     7    16    17    1
     8    17    18    1
     9    18    19    2
    10    19    20    1
    11    20    21    1
    12    21    22    1
    13    21    23    1
    14    23    24    1
    15    23    25    2
    16    25    26    1
    17    26    27    2
    18    26    28    1
    19     3     4   ar
    20     4     5   ar
    21     5     6   ar
    22     6     7    1
    23     7     8   ar
    24     8     9   ar
    25     9    10   ar
    26    10    11    1
    27    10    12   ar
    28     6     1   ar
    29    12     7   ar
    30    28    17    2
    31    25    19    1
@<TRIPOS>MOLECULE
*****
 28 31 0 0 0
SMALL
GASTEIGER

@<TRIPOS>ATOM
      1 C         141.4098  138.6440  164.5770 C.ar    1  UNL1        0.1547
      2 C         141.3395  138.1193  163.1736 C.ar    1  UNL1        0.0384
      3 C         142.5507  138.1748  162.2906 C.ar    1  UNL1        0.0034
      4 C         143.8323  138.7550  162.8111 C.ar    1  UNL1        0.0017
      5 C         143.9026  139.2797  164.2145 C.ar    1  UNL1        0.0206
      6 C         142.6913  139.2242  165.0975 C.ar    1  UNL1        0.0994
      7 N         142.7616  139.7490  166.5010 N.ar    1  UNL1       -0.2839
      8 C         142.9739  138.9292  167.7392 C.ar    1  UNL1        0.1826
      9 N         142.9754  139.8591  168.9162 N.ar    1  UNL1       -0.2280
     10 C         142.7640  141.2536  168.4054 C.ar    1  UNL1        0.0786
     11 C         142.6967  142.4977  169.2406 C.3     1  UNL1        0.0538
     12 C         142.6319  141.1855  166.9128 C.ar    1  UNL1        0.0963
     13 C         138.8277  138.6951  164.8604 C.3     1  UNL1        0.2525
     14 O         140.1984  138.5885  165.4601 O.3     1  UNL1       -0.4700
     15 C         142.4805  137.6501  160.8871 C.2     1  UNL1        0.0079
     16 C         141.8249  138.4666  159.8131 C.2     1  UNL1        0.0937
     17 C         141.7547  137.9418  158.4096 C.2     1  UNL1        0.3699
     18 N         140.4622  138.0008  157.6507 N.2     1  UNL1       -0.0293
     19 C         140.3920  137.4760  156.2472 C.2     1  UNL1        0.2254
     20 S         139.2660  137.4006  155.2590 S.3     1  UNL1       -0.0648
     21 C         139.7924  136.7704  154.0037 C.3     1  UNL1        0.0740
     22 C         139.0056  136.5014  152.7553 C.3     1  UNL1        0.0166
     23 C         141.2437  136.4563  154.2161 C.2     1  UNL1       -0.0230
     24 C         142.1630  135.8181  153.2174 C.3     1  UNL1        0.0276
     25 C         141.6143  136.8924  155.6027 C.2     1  UNL1        0.1239
     26 C         142.9067  136.8335  156.3616 C.2     1  UNL1        0.3791
     27 O         144.1290  136.2498  155.7171 O.2     1  UNL1       -0.2376
     28 N         142.9769  137.3582  157.7650 N.am    1  UNL1        0.0364
@<TRIPOS>BOND
     1    13    14    1
     2    14     1    1
     3     1     2   ar
     4     2     3   ar
     5     3    15    1
     6    15    16    2
     7    16    17    1
     8    17    18    1
     9    18    19    2
    10    19    20    1
    11    20    21    1
    12    21    22    1
    13    21    23    1
    14    23    24    1
    15    23    25    2
    16    25    26    1
    17    26    27    2
    18    26    28    1
    19     3     4   ar
    20     4     5   ar
    21     5     6   ar
    22     6     7    1
    23     7     8   ar
    24     8     9   ar
    25     9    10   ar
    26    10    11    1
    27    10    12   ar
    28     6     1   ar
    29    12     7   ar
    30    28    17    2
    31    25    19    1
@<TRIPOS>MOLECULE
*****
 28 31 0 0 0
SMALL
GASTEIGER

@<TRIPOS>ATOM
      1 C         142.8190  135.6285  156.6819 C.ar    1  UNL1        0.1547
      2 C         142.9098  136.7592  157.6633 C.ar    1  UNL1        0.0384
      3 C         141.8282  137.7973  157.7135 C.ar    1  UNL1        0.0034
      4 C         140.6559  137.7046  156.7824 C.ar    1  UNL1        0.0017
      5 C         140.5651  136.5739  155.8010 C.ar    1  UNL1        0.0206
      6 C         141.6467  135.5358  155.7508 C.ar    1  UNL1        0.0994
      7 N         141.5560  134.4050  154.7694 N.ar    1  UNL1       -0.2839
      8 C         141.8584  134.4844  153.3023 C.ar    1  UNL1        0.1826
      9 N         141.6362  133.1248  152.7089 N.ar    1  UNL1       -0.2280
     10 C         141.1965  132.2051  153.8093 C.ar    1  UNL1        0.0786
     11 C         140.8646  130.7496  153.6621 C.3     1  UNL1        0.0538
     12 C         141.1469  132.9963  155.0827 C.ar    1  UNL1        0.0963
     13 C         143.9996  133.5574  157.7149 C.3     1  UNL1        0.2525
     14 O         143.9006  134.5903  156.6317 O.3     1  UNL1       -0.4700
     15 C         141.9190  138.9281  158.6949 C.2     1  UNL1        0.0079
     16 C         143.2608  139.4451  159.1215 C.2     1  UNL1        0.0937
     17 C         143.3516  140.5759  160.1029 C.2     1  UNL1        0.3699
     18 N         143.9489  140.3456  161.4594 N.2     1  UNL1       -0.0293
     19 C         144.0396  141.4764  162.4407 C.2     1  UNL1        0.2254
     20 S         144.5739  141.5503  163.8404 S.3     1  UNL1       -0.0648
     21 C         144.3976  142.9570  164.3303 C.3     1  UNL1        0.0740
     22 C         144.7948  143.4770  165.6800 C.3     1  UNL1        0.0166
     23 C         143.7542  143.7526  163.2333 C.2     1  UNL1       -0.0230
     24 C         143.3952  145.2077  163.2936 C.3     1  UNL1        0.0276
     25 C         143.5330  142.8375  162.0655 C.2     1  UNL1        0.1239
     26 C         142.9357  143.0678  160.7091 C.2     1  UNL1        0.3791
     27 O         142.4290  144.4289  160.3339 O.2     1  UNL1       -0.2376
     28 N         142.8450  141.9370  159.7277 N.am    1  UNL1        0.0364
@<TRIPOS>BOND
     1    13    14    1
     2    14     1    1
     3     1     2   ar
     4     2     3   ar
     5     3    15    1
     6    15    16    2
     7    16    17    1
     8    17    18    1
     9    18    19    2
    10    19    20    1
    11    20    21    1
    12    21    22    1
    13    21    23    1
    14    23    24    1
    15    23    25    2
    16    25    26    1
    17    26    27    2
    18    26    28    1
    19     3     4   ar
    20     4     5   ar
    21     5     6   ar
    22     6     7    1
    23     7     8   ar
    24     8     9   ar
    25     9    10   ar
    26    10    11    1
    27    10    12   ar
    28     6     1   ar
    29    12     7   ar
    30    28    17    2
    31    25    19    1
@<TRIPOS>MOLECULE
*****
 28 31 0 0 0
SMALL
GASTEIGER

@<TRIPOS>ATOM
      1 C         139.9561  137.2196  156.6810 C.ar    1  UNL1        0.1547
      2 C         139.8301  138.1362  157.8616 C.ar    1  UNL1        0.0384
      3 C         141.0484  138.5153  158.6501 C.ar    1  UNL1        0.0034
      4 C         142.3928  137.9779  158.2580 C.ar    1  UNL1        0.0017
      5 C         142.5189  137.0613  157.0773 C.ar    1  UNL1        0.0206
      6 C         141.3005  136.6821  156.2888 C.ar    1  UNL1        0.0994
      7 N         141.4265  135.7655  155.1082 N.ar    1  UNL1       -0.2839
      8 C         141.5431  136.1869  153.6733 C.ar    1  UNL1        0.1826
      9 N         141.6467  134.9484  152.8334 N.ar    1  UNL1       -0.2280
     10 C         141.5940  133.7616  153.7492 C.ar    1  UNL1        0.0786
     11 C         141.6650  132.3224  153.3323 C.3     1  UNL1        0.0538
     12 C         141.4579  134.2666  155.1551 C.ar    1  UNL1        0.0963
     13 C         138.2467  137.7359  154.7938 C.3     1  UNL1        0.2525
     14 O         138.7377  136.8404  155.8924 O.3     1  UNL1       -0.4700
     15 C         140.9224  139.4320  159.8308 C.2     1  UNL1        0.0079
     16 C         140.6777  138.8650  161.1977 C.2     1  UNL1        0.0937
     17 C         140.5517  139.7817  162.3784 C.2     1  UNL1        0.3699
     18 N         139.7345  141.0349  162.2711 N.2     1  UNL1       -0.0293
     19 C         139.6085  141.9514  163.4518 C.2     1  UNL1        0.2254
     20 S         138.8770  143.2469  163.6432 S.3     1  UNL1       -0.0648
     21 C         139.1161  143.7109  165.0494 C.3     1  UNL1        0.0740
     22 C         138.5716  144.9637  165.6691 C.3     1  UNL1        0.0166
     23 C         139.9955  142.7022  165.7271 C.2     1  UNL1       -0.0230
     24 C         140.4847  142.7692  167.1435 C.3     1  UNL1        0.0276
     25 C         140.2998  141.6148  164.7397 C.2     1  UNL1        0.1239
     26 C         141.1171  140.3616  164.8470 C.2     1  UNL1        0.3791
     27 O         141.8083  140.0250  166.1349 O.2     1  UNL1       -0.2376
     28 N         141.2430  139.4450  163.6663 N.am    1  UNL1        0.0364
@<TRIPOS>BOND
     1    13    14    1
     2    14     1    1
     3     1     2   ar
     4     2     3   ar
     5     3    15    1
     6    15    16    2
     7    16    17    1
     8    17    18    1
     9    18    19    2
    10    19    20    1
    11    20    21    1
    12    21    22    1
    13    21    23    1
    14    23    24    1
    15    23    25    2
    16    25    26    1
    17    26    27    2
    18    26    28    1
    19     3     4   ar
    20     4     5   ar
    21     5     6   ar
    22     6     7    1
    23     7     8   ar
    24     8     9   ar
    25     9    10   ar
    26    10    11    1
    27    10    12   ar
    28     6     1   ar
    29    12     7   ar
    30    28    17    2
    31    25    19    1
@<TRIPOS>MOLECULE
*****
 28 31 0 0 0
SMALL
GASTEIGER

@<TRIPOS>ATOM
      1 C         144.4760  140.4011  157.4175 C.ar    1  UNL1        0.1547
      2 C         143.6002  139.9388  158.5440 C.ar    1  UNL1        0.0384
      3 C         143.3169  140.8542  159.6980 C.ar    1  UNL1        0.0034
      4 C         143.9095  142.2319  159.7255 C.ar    1  UNL1        0.0017
      5 C         144.7853  142.6942  158.5990 C.ar    1  UNL1        0.0206
      6 C         145.0686  141.7789  157.4449 C.ar    1  UNL1        0.0994
      7 N         145.9445  142.2412  156.3183 N.ar    1  UNL1       -0.2839
      8 C         147.4434  142.2966  156.3325 C.ar    1  UNL1        0.1826
      9 N         147.9005  142.8189  155.0028 N.ar    1  UNL1       -0.2280
     10 C         146.6841  143.0863  154.1668 C.ar    1  UNL1        0.0786
     11 C         146.6777  143.6175  152.7640 C.3     1  UNL1        0.0538
     12 C         145.4752  142.7293  154.9799 C.ar    1  UNL1        0.0963
     13 C         143.6613  138.6398  155.6900 C.3     1  UNL1        0.2525
     14 O         144.7593  139.4858  156.2633 O.3     1  UNL1       -0.4700
     15 C         142.4411  140.3918  160.8246 C.2     1  UNL1        0.0079
     16 C         142.3692  141.1877  162.0940 C.2     1  UNL1        0.0937
     17 C         141.4933  140.7254  163.2206 C.2     1  UNL1        0.3699
     18 N         141.7147  141.2521  164.6075 N.2     1  UNL1       -0.0293
     19 C         140.8389  140.7898  165.7340 C.2     1  UNL1        0.2254
     20 S         140.8186  141.1308  167.1946 S.3     1  UNL1       -0.0648
     21 C         139.7088  140.3525  167.8369 C.3     1  UNL1        0.0740
     22 C         139.3309  140.3897  169.2881 C.3     1  UNL1        0.0166
     23 C         139.0432  139.5305  166.7733 C.2     1  UNL1       -0.0230
     24 C         137.8829  138.6013  166.9741 C.3     1  UNL1        0.0276
     25 C         139.7416  139.8008  165.4736 C.2     1  UNL1        0.1239
     26 C         139.5202  139.2740  164.0867 C.2     1  UNL1        0.3791
     27 O         138.4230  138.2850  163.8264 O.2     1  UNL1       -0.2376
     28 N         140.3961  139.7364  162.9602 N.am    1  UNL1        0.0364
@<TRIPOS>BOND
     1    13    14    1
     2    14     1    1
     3     1     2   ar
     4     2     3   ar
     5     3    15    1
     6    15    16    2
     7    16    17    1
     8    17    18    1
     9    18    19    2
    10    19    20    1
    11    20    21    1
    12    21    22    1
    13    21    23    1
    14    23    24    1
    15    23    25    2
    16    25    26    1
    17    26    27    2
    18    26    28    1
    19     3     4   ar
    20     4     5   ar
    21     5     6   ar
    22     6     7    1
    23     7     8   ar
    24     8     9   ar
    25     9    10   ar
    26    10    11    1
    27    10    12   ar
    28     6     1   ar
    29    12     7   ar
    30    28    17    2
    31    25    19    1
@<TRIPOS>MOLECULE
*****
 28 31 0 0 0
SMALL
GASTEIGER

@<TRIPOS>ATOM
      1 C         142.6927  135.9405  156.6988 C.ar    1  UNL1        0.1547
      2 C         142.7354  137.1586  157.5730 C.ar    1  UNL1        0.0384
      3 C         141.6373  138.1773  157.4939 C.ar    1  UNL1        0.0034
      4 C         140.4964  137.9779  156.5407 C.ar    1  UNL1        0.0017
      5 C         140.4537  136.7597  155.6666 C.ar    1  UNL1        0.0206
      6 C         141.5518  135.7410  155.7456 C.ar    1  UNL1        0.0994
      7 N         141.5091  134.5227  154.8715 N.ar    1  UNL1       -0.2839
      8 C         141.7638  134.4887  153.3936 C.ar    1  UNL1        0.1826
      9 N         141.6163  133.0696  152.9304 N.ar    1  UNL1       -0.2280
     10 C         141.2705  132.2267  154.1220 C.ar    1  UNL1        0.0786
     11 C         141.0326  130.7457  154.1152 C.3     1  UNL1        0.0538
     12 C         141.2042  133.1248  155.3216 C.ar    1  UNL1        0.0963
     13 C         143.7882  133.8998  157.8759 C.3     1  UNL1        0.2525
     14 O         143.7909  134.9217  156.7779 O.3     1  UNL1       -0.4700
     15 C         141.6800  139.3956  158.3681 C.2     1  UNL1        0.0079
     16 C         140.9293  139.4137  159.6666 C.2     1  UNL1        0.0937
     17 C         140.9720  140.6319  160.5408 C.2     1  UNL1        0.3699
     18 N         139.8832  140.8738  161.5438 N.2     1  UNL1       -0.0293
     19 C         139.9260  142.0920  162.4179 C.2     1  UNL1        0.2254
     20 S         139.0020  142.5921  163.4885 S.3     1  UNL1       -0.0648
     21 C         139.5624  143.8775  164.0212 C.3     1  UNL1        0.0740
     22 C         138.9584  144.7205  165.1050 C.3     1  UNL1        0.0166
     23 C         140.8327  144.1718  163.2799 C.2     1  UNL1       -0.0230
     24 C         141.7222  145.3608  163.4922 C.3     1  UNL1        0.0276
     25 C         141.0575  143.0683  162.2890 C.2     1  UNL1        0.1239
     26 C         142.1462  142.8264  161.2860 C.2     1  UNL1        0.3791
     27 O         143.2777  143.8027  161.1571 O.2     1  UNL1       -0.2376
     28 N         142.1034  141.6082  160.4118 N.am    1  UNL1        0.0364
@<TRIPOS>BOND
     1    13    14    1
     2    14     1    1
     3     1     2   ar
     4     2     3   ar
     5     3    15    1
     6    15    16    2
     7    16    17    1
     8    17    18    1
     9    18    19    2
    10    19    20    1
    11    20    21    1
    12    21    22    1
    13    21    23    1
    14    23    24    1
    15    23    25    2
    16    25    26    1
    17    26    27    2
    18    26    28    1
    19     3     4   ar
    20     4     5   ar
    21     5     6   ar
    22     6     7    1
    23     7     8   ar
    24     8     9   ar
    25     9    10   ar
    26    10    11    1
    27    10    12   ar
    28     6     1   ar
    29    12     7   ar
    30    28    17    2
    31    25    19    1
@<TRIPOS>MOLECULE
*****
 28 31 0 0 0
SMALL
GASTEIGER

@<TRIPOS>ATOM
      1 C         139.3612  144.1231  156.8211 C.ar    1  UNL1        0.1547
      2 C         139.1664  143.3412  158.0863 C.ar    1  UNL1        0.0384
      3 C         139.8468  143.7774  159.3498 C.ar    1  UNL1        0.0034
      4 C         140.7220  144.9956  159.3483 C.ar    1  UNL1        0.0017
      5 C         140.9168  145.7776  158.0832 C.ar    1  UNL1        0.0206
      6 C         140.2364  145.3413  156.8196 C.ar    1  UNL1        0.0994
      7 N         140.4312  146.1233  155.5544 N.ar    1  UNL1       -0.2839
      8 C         141.2814  145.7154  154.3879 C.ar    1  UNL1        0.1826
      9 N         141.1857  146.7904  153.3462 N.ar    1  UNL1       -0.2280
     10 C         140.2763  147.8627  153.8689 C.ar    1  UNL1        0.0786
     11 C         139.8993  149.1255  153.1526 C.3     1  UNL1        0.0538
     12 C         139.8100  147.4504  155.2336 C.ar    1  UNL1        0.0963
     13 C         137.4935  144.4464  155.0443 C.3     1  UNL1        0.2525
     14 O         138.6808  143.6869  155.5575 O.3     1  UNL1       -0.4700
     15 C         139.6520  142.9955  160.6151 C.2     1  UNL1        0.0079
     16 C         140.3554  143.4148  161.8718 C.2     1  UNL1        0.0937
     17 C         140.1606  142.6329  163.1370 C.2     1  UNL1        0.3699
     18 N         139.1664  141.5106  163.1794 N.2     1  UNL1       -0.0293
     19 C         138.9716  140.7287  164.4446 C.2     1  UNL1        0.2254
     20 S         138.0717  139.5778  164.7848 S.3     1  UNL1       -0.0648
     21 C         138.3150  139.2070  166.2178 C.3     1  UNL1        0.0740
     22 C         137.6285  138.1076  166.9728 C.3     1  UNL1        0.0166
     23 C         139.3653  140.1286  166.7631 C.2     1  UNL1       -0.0230
     24 C         139.9135  140.1127  168.1593 C.3     1  UNL1        0.0276
     25 C         139.7711  141.0691  165.6673 C.2     1  UNL1        0.1239
     26 C         140.7654  142.1914  165.6248 C.2     1  UNL1        0.3791
     27 O         141.5649  142.5318  166.8475 O.2     1  UNL1       -0.2376
     28 N         140.9601  142.9733  164.3596 N.am    1  UNL1        0.0364
@<TRIPOS>BOND
     1    13    14    1
     2    14     1    1
     3     1     2   ar
     4     2     3   ar
     5     3    15    1
     6    15    16    2
     7    16    17    1
     8    17    18    1
     9    18    19    2
    10    19    20    1
    11    20    21    1
    12    21    22    1
    13    21    23    1
    14    23    24    1
    15    23    25    2
    16    25    26    1
    17    26    27    2
    18    26    28    1
    19     3     4   ar
    20     4     5   ar
    21     5     6   ar
    22     6     7    1
    23     7     8   ar
    24     8     9   ar
    25     9    10   ar
    26    10    11    1
    27    10    12   ar
    28     6     1   ar
    29    12     7   ar
    30    28    17    2
    31    25    19    1
@<TRIPOS>MOLECULE
*****
 28 31 0 0 0
SMALL
GASTEIGER

@<TRIPOS>ATOM
      1 C         144.4152  140.3040  157.3134 C.ar    1  UNL1        0.1547
      2 C         143.6406  139.9729  158.5544 C.ar    1  UNL1        0.0384
      3 C         143.5526  140.9697  159.6718 C.ar    1  UNL1        0.0034
      4 C         144.2393  142.2976  159.5482 C.ar    1  UNL1        0.0017
      5 C         145.0139  142.6287  158.3071 C.ar    1  UNL1        0.0206
      6 C         145.1019  141.6319  157.1897 C.ar    1  UNL1        0.0994
      7 N         145.8765  141.9629  155.9485 N.ar    1  UNL1       -0.2839
      8 C         145.2970  142.4263  154.6449 C.ar    1  UNL1        0.1826
      9 N         146.4289  142.6385  153.6838 N.ar    1  UNL1       -0.2280
     10 C         147.7080  142.3062  154.3935 C.ar    1  UNL1        0.0786
     11 C         149.0865  142.3787  153.8065 C.3     1  UNL1        0.0538
     12 C         147.3666  141.8887  155.7931 C.ar    1  UNL1        0.0963
     13 C         143.4968  138.1992  156.0983 C.3     1  UNL1        0.2525
     14 O         144.5032  139.3072  156.1959 O.3     1  UNL1       -0.4700
     15 C         142.7780  140.6387  160.9130 C.2     1  UNL1        0.0079
     16 C         142.9569  141.4655  162.1517 C.2     1  UNL1        0.0937
     17 C         142.1823  141.1344  163.3928 C.2     1  UNL1        0.3699
     18 N         141.0101  140.2014  163.3188 N.2     1  UNL1       -0.0293
     19 C         140.2356  139.8704  164.5599 C.2     1  UNL1        0.2254
     20 S         139.0438  138.9903  164.7944 S.3     1  UNL1       -0.0648
     21 C         138.7047  139.0483  166.2545 C.3     1  UNL1        0.0740
     22 C         137.5807  138.3185  166.9283 C.3     1  UNL1        0.0166
     23 C         139.6870  139.9643  166.9223 C.2     1  UNL1       -0.0230
     24 C         139.7178  140.3114  168.3813 C.3     1  UNL1        0.0276
     25 C         140.6331  140.4724  165.8750 C.2     1  UNL1        0.1239
     26 C         141.8052  141.4054  165.9490 C.2     1  UNL1        0.3791
     27 O         142.2028  142.0075  167.2642 O.2     1  UNL1       -0.2376
     28 N         142.5798  141.7364  164.7079 N.am    1  UNL1        0.0364
@<TRIPOS>BOND
     1    13    14    1
     2    14     1    1
     3     1     2   ar
     4     2     3   ar
     5     3    15    1
     6    15    16    2
     7    16    17    1
     8    17    18    1
     9    18    19    2
    10    19    20    1
    11    20    21    1
    12    21    22    1
    13    21    23    1
    14    23    24    1
    15    23    25    2
    16    25    26    1
    17    26    27    2
    18    26    28    1
    19     3     4   ar
    20     4     5   ar
    21     5     6   ar
    22     6     7    1
    23     7     8   ar
    24     8     9   ar
    25     9    10   ar
    26    10    11    1
    27    10    12   ar
    28     6     1   ar
    29    12     7   ar
    30    28    17    2
    31    25    19    1
