@<TRIPOS>MOLECULE
*****
 31 35 0 0 0
SMALL
GASTEIGER

@<TRIPOS>ATOM
      1 O         143.6468  142.6307  167.6594 O.2     1  UNL1       -0.2258
      2 C         142.6723  142.7814  166.5292 C.2     1  UNL1        0.4086
      3 O         142.9707  143.3636  165.1792 O.3     1  UNL1       -0.4398
      4 C         141.7110  143.3184  164.3661 C.3     1  UNL1        0.1561
      5 C         142.8839  143.9093  163.6416 C.3     1  UNL1        0.0425
      6 C         142.7285  144.3898  162.2293 C.3     1  UNL1        0.0160
      7 C         141.4001  144.2794  161.5414 C.3     1  UNL1        0.1122
      8 C         140.2272  143.6884  162.2659 C.3     1  UNL1        0.0160
      9 C         140.3826  143.2079  163.6782 C.3     1  UNL1        0.0425
     10 C         140.6340  142.7083  165.2135 C.3     1  UNL1        0.1415
     11 N         141.2281  142.3764  166.5503 N.am    1  UNL1       -0.2200
     12 C         141.2447  144.7599  160.1289 C.2     1  UNL1        0.3506
     13 N         140.1098  145.5847  159.5980 N.2     1  UNL1       -0.0350
     14 C         140.3606  145.8346  158.1404 C.2     1  UNL1        0.2348
     15 C         139.5811  146.5859  157.1021 C.2     1  UNL1        0.0869
     16 C         140.0916  146.6668  155.6939 C.2     1  UNL1        0.1468
     17 C         141.3814  145.9965  155.3240 C.2     1  UNL1        0.0200
     18 C         142.1609  145.2452  156.3622 C.3     1  UNL1        0.1068
     19 C         141.6506  145.1642  157.7704 C.2     1  UNL1        0.2176
     20 N         142.1969  144.5001  158.9994 N.2     1  UNL1       -0.0389
     21 O         139.3121  147.4181  154.6557 O.2     1  UNL1       -0.4047
     22 C         139.5262  148.8922  154.4780 C.3     1  UNL1        0.5753
     23 F         139.7402  150.3661  154.3004 F       1  UNL1       -0.1328
     24 F         138.4228  149.1702  155.4554 F       1  UNL1       -0.1328
     25 F         140.6295  148.6141  153.5007 F       1  UNL1       -0.1328
     26 C         140.5050  141.7497  167.7053 C.ar    1  UNL1        0.0762
     27 C         140.3778  142.4920  169.0025 C.ar    1  UNL1        0.0182
     28 C         139.6547  141.8652  170.1576 C.ar    1  UNL1        0.0220
     29 C         139.0588  140.4960  170.0155 C.ar    1  UNL1        0.0990
     30 N         139.1860  139.7536  168.7183 N.ar    1  UNL1       -0.2410
     31 C         139.9091  140.3805  167.5633 C.ar    1  UNL1        0.1138
@<TRIPOS>BOND
     1     1     2    2
     2     2     3    1
     3     3     4    1
     4     4     5    1
     5     5     6    1
     6     6     7    1
     7     7    12    1
     8    12    13    2
     9    13    14    1
    10    14    15    2
    11    15    16    1
    12    16    21    1
    13    21    22    1
    14    22    23    1
    15    22    24    1
    16    22    25    1
    17    16    17    2
    18    17    18    1
    19    18    19    1
    20    19    20    2
    21     7     8    1
    22     8     9    1
    23     4    10    1
    24    10    11    1
    25    11    26    1
    26    26    27   ar
    27    27    28   ar
    28    28    29   ar
    29    29    30   ar
    30    30    31   ar
    31    11     2   am
    32    31    26   ar
    33     9     4    1
    34    20    12    1
    35    19    14    1
@<TRIPOS>MOLECULE
*****
 31 35 0 0 0
SMALL
GASTEIGER

@<TRIPOS>ATOM
      1 O         138.9980  143.5828  155.4618 O.2     1  UNL1       -0.2258
      2 C         139.4805  144.1421  156.7673 C.2     1  UNL1        0.4086
      3 O         139.6762  143.3705  158.0387 O.3     1  UNL1       -0.4398
      4 C         140.1687  144.3228  159.0878 C.3     1  UNL1        0.1561
      5 C         140.0101  142.9116  159.5709 C.3     1  UNL1        0.0425
      6 C         140.3366  142.5647  160.9932 C.3     1  UNL1        0.0160
      7 C         140.8216  143.6289  161.9324 C.3     1  UNL1        0.1122
      8 C         140.9801  145.0401  161.4493 C.3     1  UNL1        0.0160
      9 C         140.6537  145.3870  160.0270 C.3     1  UNL1        0.0425
     10 C         140.2774  145.6830  158.4648 C.3     1  UNL1        0.1415
     11 N         139.8521  145.5714  157.0307 N.am    1  UNL1       -0.2200
     12 C         141.1480  143.2819  163.3548 C.2     1  UNL1        0.3506
     13 N         140.1560  143.0499  164.4557 N.2     1  UNL1       -0.0350
     14 C         140.9187  142.7306  165.7072 C.2     1  UNL1        0.2348
     15 C         140.4698  142.4127  167.1027 C.2     1  UNL1        0.0869
     16 C         141.4843  142.1296  168.1708 C.2     1  UNL1        0.1468
     17 C         142.9477  142.1643  167.8433 C.2     1  UNL1        0.0200
     18 C         143.3966  142.4822  166.4479 C.3     1  UNL1        0.1068
     19 C         142.3822  142.7653  165.3798 C.2     1  UNL1        0.2176
     20 N         142.5239  143.1061  163.9259 N.2     1  UNL1       -0.0389
     21 O         141.0353  141.8117  169.5663 O.2     1  UNL1       -0.4047
     22 C         140.1457  142.7680  170.3040 C.3     1  UNL1        0.5753
     23 F         139.2561  143.7242  171.0417 F       1  UNL1       -0.1328
     24 F         141.2364  143.7974  170.2850 F       1  UNL1       -0.1328
     25 F         139.0549  141.7385  170.3231 F       1  UNL1       -0.1328
     26 C         139.8064  146.6921  156.0348 C.ar    1  UNL1        0.0762
     27 C         140.5727  146.5852  154.7498 C.ar    1  UNL1        0.0182
     28 C         140.5270  147.7060  153.7539 C.ar    1  UNL1        0.0220
     29 C         139.7150  148.9336  154.0430 C.ar    1  UNL1        0.0990
     30 N         138.9486  149.0405  155.3281 N.ar    1  UNL1       -0.2410
     31 C         138.9944  147.9197  156.3240 C.ar    1  UNL1        0.1138
@<TRIPOS>BOND
     1     1     2    2
     2     2     3    1
     3     3     4    1
     4     4     5    1
     5     5     6    1
     6     6     7    1
     7     7    12    1
     8    12    13    2
     9    13    14    1
    10    14    15    2
    11    15    16    1
    12    16    21    1
    13    21    22    1
    14    22    23    1
    15    22    24    1
    16    22    25    1
    17    16    17    2
    18    17    18    1
    19    18    19    1
    20    19    20    2
    21     7     8    1
    22     8     9    1
    23     4    10    1
    24    10    11    1
    25    11    26    1
    26    26    27   ar
    27    27    28   ar
    28    28    29   ar
    29    29    30   ar
    30    30    31   ar
    31    11     2   am
    32    31    26   ar
    33     9     4    1
    34    20    12    1
    35    19    14    1
@<TRIPOS>MOLECULE
*****
 31 35 0 0 0
SMALL
GASTEIGER

@<TRIPOS>ATOM
      1 O         142.9770  138.9390  169.1600 O.2     1  UNL1       -0.2258
      2 C         142.5484  139.4714  167.8248 C.2     1  UNL1        0.4086
      3 O         142.9951  138.9604  166.4871 O.3     1  UNL1       -0.4398
      4 C         142.3206  139.7816  165.4284 C.3     1  UNL1        0.1561
      5 C         143.2242  138.7130  164.8884 C.3     1  UNL1        0.0425
      6 C         143.3850  138.5452  163.4065 C.3     1  UNL1        0.0160
      7 C         142.6422  139.4459  162.4647 C.3     1  UNL1        0.1122
      8 C         141.7386  140.5144  163.0047 C.3     1  UNL1        0.0160
      9 C         141.5778  140.6822  164.4866 C.3     1  UNL1        0.0425
     10 C         141.4570  140.8001  166.1118 C.3     1  UNL1        0.1415
     11 N         141.5978  140.6084  167.5928 N.am    1  UNL1       -0.2200
     12 C         142.8030  139.2780  160.9828 C.2     1  UNL1        0.3506
     13 N         142.4511  138.0537  160.1908 N.2     1  UNL1       -0.0350
     14 C         142.7746  138.3240  158.7513 C.2     1  UNL1        0.2348
     15 C         142.6379  137.4829  157.5168 C.2     1  UNL1        0.0869
     16 C         143.0532  138.0333  156.1846 C.2     1  UNL1        0.1468
     17 C         143.6050  139.4246  156.0869 C.2     1  UNL1        0.0200
     18 C         143.7417  140.2656  157.3213 C.3     1  UNL1        0.1068
     19 C         143.3265  139.7154  158.6535 C.2     1  UNL1        0.2176
     20 N         143.3440  140.3049  160.0327 N.2     1  UNL1       -0.0389
     21 O         142.9165  137.1922  154.9501 O.2     1  UNL1       -0.4047
     22 C         143.1410  135.7108  155.0232 C.3     1  UNL1        0.5753
     23 F         143.3655  134.2296  155.0963 F       1  UNL1       -0.1328
     24 F         144.5971  135.9450  155.2969 F       1  UNL1       -0.1328
     25 F         141.6849  135.4767  154.7495 F       1  UNL1       -0.1328
     26 C         140.9090  141.4125  168.6553 C.ar    1  UNL1        0.0762
     27 C         141.2514  142.8611  168.8397 C.ar    1  UNL1        0.0182
     28 C         140.5625  143.6652  169.9023 C.ar    1  UNL1        0.0220
     29 C         139.5313  143.0206  170.7804 C.ar    1  UNL1        0.0990
     30 N         139.1889  141.5719  170.5960 N.ar    1  UNL1       -0.2410
     31 C         139.8778  140.7678  169.5334 C.ar    1  UNL1        0.1138
@<TRIPOS>BOND
     1     1     2    2
     2     2     3    1
     3     3     4    1
     4     4     5    1
     5     5     6    1
     6     6     7    1
     7     7    12    1
     8    12    13    2
     9    13    14    1
    10    14    15    2
    11    15    16    1
    12    16    21    1
    13    21    22    1
    14    22    23    1
    15    22    24    1
    16    22    25    1
    17    16    17    2
    18    17    18    1
    19    18    19    1
    20    19    20    2
    21     7     8    1
    22     8     9    1
    23     4    10    1
    24    10    11    1
    25    11    26    1
    26    26    27   ar
    27    27    28   ar
    28    28    29   ar
    29    29    30   ar
    30    30    31   ar
    31    11     2   am
    32    31    26   ar
    33     9     4    1
    34    20    12    1
    35    19    14    1
@<TRIPOS>MOLECULE
*****
 31 35 0 0 0
SMALL
GASTEIGER

@<TRIPOS>ATOM
      1 O         143.8283  139.2329  155.9302 O.2     1  UNL1       -0.2258
      2 C         143.4282  138.7502  157.2929 C.2     1  UNL1        0.4086
      3 O         143.5075  139.5392  158.5663 O.3     1  UNL1       -0.4398
      4 C         143.0069  138.6704  159.6819 C.3     1  UNL1        0.1561
      5 C         143.4353  140.0395  160.1200 C.3     1  UNL1        0.0425
      6 C         143.3400  140.4283  161.5656 C.3     1  UNL1        0.0160
      7 C         142.8165  139.4481  162.5730 C.3     1  UNL1        0.1122
      8 C         142.3882  138.0789  162.1349 C.3     1  UNL1        0.0160
      9 C         142.4834  137.6901  160.6894 C.3     1  UNL1        0.0425
     10 C         142.6183  137.3444  159.0981 C.3     1  UNL1        0.1415
     11 N         142.8787  137.3937  157.6217 N.am    1  UNL1       -0.2200
     12 C         142.7213  139.8370  164.0187 C.2     1  UNL1        0.3506
     13 N         142.4238  141.2098  164.5446 N.2     1  UNL1       -0.0350
     14 C         142.4255  141.1426  166.0431 C.2     1  UNL1        0.2348
     15 C         142.1937  142.1866  167.0949 C.2     1  UNL1        0.0869
     16 C         142.2606  141.8161  168.5470 C.2     1  UNL1        0.1468
     17 C         142.5593  140.4017  168.9471 C.2     1  UNL1        0.0200
     18 C         142.7911  139.3577  167.8953 C.3     1  UNL1        0.1068
     19 C         142.7242  139.7281  166.4433 C.2     1  UNL1        0.2176
     20 N         142.9070  138.9212  165.1921 N.2     1  UNL1       -0.0389
     21 O         142.0289  142.8601  169.5988 O.2     1  UNL1       -0.4047
     22 C         140.6752  143.0019  170.2294 C.3     1  UNL1        0.5753
     23 F         139.3216  143.1437  170.8598 F       1  UNL1       -0.1328
     24 F         140.2358  143.8730  169.0901 F       1  UNL1       -0.1328
     25 F         141.1146  142.1307  171.3686 F       1  UNL1       -0.1328
     26 C         142.6327  136.2818  156.6454 C.ar    1  UNL1        0.0762
     27 C         143.6657  135.2117  156.4516 C.ar    1  UNL1        0.0182
     28 C         143.4197  134.0998  155.4753 C.ar    1  UNL1        0.0220
     29 C         142.1407  134.0580  154.6928 C.ar    1  UNL1        0.0990
     30 N         141.1075  135.1281  154.8867 N.ar    1  UNL1       -0.2410
     31 C         141.3536  136.2400  155.8630 C.ar    1  UNL1        0.1138
@<TRIPOS>BOND
     1     1     2    2
     2     2     3    1
     3     3     4    1
     4     4     5    1
     5     5     6    1
     6     6     7    1
     7     7    12    1
     8    12    13    2
     9    13    14    1
    10    14    15    2
    11    15    16    1
    12    16    21    1
    13    21    22    1
    14    22    23    1
    15    22    24    1
    16    22    25    1
    17    16    17    2
    18    17    18    1
    19    18    19    1
    20    19    20    2
    21     7     8    1
    22     8     9    1
    23     4    10    1
    24    10    11    1
    25    11    26    1
    26    26    27   ar
    27    27    28   ar
    28    28    29   ar
    29    29    30   ar
    30    30    31   ar
    31    11     2   am
    32    31    26   ar
    33     9     4    1
    34    20    12    1
    35    19    14    1
@<TRIPOS>MOLECULE
*****
 31 35 0 0 0
SMALL
GASTEIGER

@<TRIPOS>ATOM
      1 O         137.7247  138.3412  167.7170 O.2     1  UNL1       -0.2258
      2 C         138.3836  139.2933  166.7634 C.2     1  UNL1        0.4086
      3 O         138.0233  139.4863  165.3201 O.3     1  UNL1       -0.4398
      4 C         138.9356  140.5319  164.7504 C.3     1  UNL1        0.1561
      5 C         137.9476  139.9815  163.7649 C.3     1  UNL1        0.0425
      6 C         137.9376  140.4854  162.3521 C.3     1  UNL1        0.0160
      7 C         138.9154  141.5396  161.9248 C.3     1  UNL1        0.1122
      8 C         139.9033  142.0899  162.9102 C.3     1  UNL1        0.0160
      9 C         139.9134  141.5860  164.3230 C.3     1  UNL1        0.0425
     10 C         139.8597  140.9851  165.8416 C.3     1  UNL1        0.1415
     11 N         139.5186  140.2197  167.0857 N.am    1  UNL1       -0.2200
     12 C         138.9053  142.0434  160.5119 C.2     1  UNL1        0.3506
     13 N         139.5243  143.3207  160.0269 N.2     1  UNL1       -0.0350
     14 C         139.2759  143.4251  158.5513 C.2     1  UNL1        0.2348
     15 C         139.6534  144.4678  157.5412 C.2     1  UNL1        0.0869
     16 C         139.2583  144.2976  156.1042 C.2     1  UNL1        0.1468
     17 C         138.4858  143.0849  155.6773 C.2     1  UNL1        0.0200
     18 C         138.1083  142.0422  156.6874 C.3     1  UNL1        0.1068
     19 C         138.5033  142.2122  158.1243 C.2     1  UNL1        0.2176
     20 N         138.2743  141.3583  159.3361 N.2     1  UNL1       -0.0389
     21 O         139.6358  145.3403  155.0941 O.2     1  UNL1       -0.4047
     22 C         139.1175  146.7411  155.2326 C.3     1  UNL1        0.5753
     23 F         138.5992  148.1419  155.3712 F       1  UNL1       -0.1328
     24 F         140.5104  147.2303  155.4978 F       1  UNL1       -0.1328
     25 F         137.7245  146.2520  154.9674 F       1  UNL1       -0.1328
     26 C         140.1938  140.3566  168.4180 C.ar    1  UNL1        0.0762
     27 C         141.6709  140.1245  168.5375 C.ar    1  UNL1        0.0182
     28 C         142.3462  140.2614  169.8700 C.ar    1  UNL1        0.0220
     29 C         141.5444  140.6303  171.0828 C.ar    1  UNL1        0.0990
     30 N         140.0672  140.8624  170.9633 N.ar    1  UNL1       -0.2410
     31 C         139.3920  140.7255  169.6308 C.ar    1  UNL1        0.1138
@<TRIPOS>BOND
     1     1     2    2
     2     2     3    1
     3     3     4    1
     4     4     5    1
     5     5     6    1
     6     6     7    1
     7     7    12    1
     8    12    13    2
     9    13    14    1
    10    14    15    2
    11    15    16    1
    12    16    21    1
    13    21    22    1
    14    22    23    1
    15    22    24    1
    16    22    25    1
    17    16    17    2
    18    17    18    1
    19    18    19    1
    20    19    20    2
    21     7     8    1
    22     8     9    1
    23     4    10    1
    24    10    11    1
    25    11    26    1
    26    26    27   ar
    27    27    28   ar
    28    28    29   ar
    29    29    30   ar
    30    30    31   ar
    31    11     2   am
    32    31    26   ar
    33     9     4    1
    34    20    12    1
    35    19    14    1
@<TRIPOS>MOLECULE
*****
 31 35 0 0 0
SMALL
GASTEIGER

@<TRIPOS>ATOM
      1 O         144.8423  143.9179  165.9294 O.2     1  UNL1       -0.2258
      2 C         143.9751  142.8623  165.3100 C.2     1  UNL1        0.4086
      3 O         144.0999  142.3255  163.9148 O.3     1  UNL1       -0.4398
      4 C         143.0327  141.2896  163.7195 C.3     1  UNL1        0.1561
      5 C         143.9034  141.5029  162.5169 C.3     1  UNL1        0.0425
      6 C         143.6628  140.7097  161.2667 C.3     1  UNL1        0.0160
      7 C         142.5515  139.7033  161.2192 C.3     1  UNL1        0.1122
      8 C         141.6809  139.4901  162.4218 C.3     1  UNL1        0.0160
      9 C         141.9215  140.2832  163.6720 C.3     1  UNL1        0.0425
     10 C         142.2484  141.1862  164.9940 C.3     1  UNL1        0.1415
     11 N         142.8308  142.1581  165.9769 N.am    1  UNL1       -0.2200
     12 C         142.3110  138.9101  159.9689 C.2     1  UNL1        0.3506
     13 N         143.1360  137.7544  159.4855 N.2     1  UNL1       -0.0350
     14 C         142.5381  137.2635  158.2004 C.2     1  UNL1        0.2348
     15 C         142.9270  136.1505  157.2731 C.2     1  UNL1        0.0869
     16 C         142.1213  135.8897  156.0350 C.2     1  UNL1        0.1468
     17 C         140.9267  136.7420  155.7242 C.2     1  UNL1        0.0200
     18 C         140.5378  137.8550  156.6515 C.3     1  UNL1        0.1068
     19 C         141.3434  138.1157  157.8896 C.2     1  UNL1        0.2176
     20 N         141.2031  139.1334  158.9826 N.2     1  UNL1       -0.0389
     21 O         142.5103  134.7767  155.1076 O.2     1  UNL1       -0.4047
     22 C         142.5508  133.3632  155.6081 C.3     1  UNL1        0.5753
     23 F         142.5914  131.9497  156.1085 F       1  UNL1       -0.1328
     24 F         144.0501  133.4074  155.6115 F       1  UNL1       -0.1328
     25 F         141.0515  133.3189  155.6046 F       1  UNL1       -0.1328
     26 C         142.3528  142.3859  167.3803 C.ar    1  UNL1        0.0762
     27 C         140.9157  142.7309  167.6365 C.ar    1  UNL1        0.0182
     28 C         140.4378  142.9587  169.0399 C.ar    1  UNL1        0.0220
     29 C         141.3969  142.8415  170.1872 C.ar    1  UNL1        0.0990
     30 N         142.8341  142.4965  169.9311 N.ar    1  UNL1       -0.2410
     31 C         143.3120  142.2687  168.5276 C.ar    1  UNL1        0.1138
@<TRIPOS>BOND
     1     1     2    2
     2     2     3    1
     3     3     4    1
     4     4     5    1
     5     5     6    1
     6     6     7    1
     7     7    12    1
     8    12    13    2
     9    13    14    1
    10    14    15    2
    11    15    16    1
    12    16    21    1
    13    21    22    1
    14    22    23    1
    15    22    24    1
    16    22    25    1
    17    16    17    2
    18    17    18    1
    19    18    19    1
    20    19    20    2
    21     7     8    1
    22     8     9    1
    23     4    10    1
    24    10    11    1
    25    11    26    1
    26    26    27   ar
    27    27    28   ar
    28    28    29   ar
    29    29    30   ar
    30    30    31   ar
    31    11     2   am
    32    31    26   ar
    33     9     4    1
    34    20    12    1
    35    19    14    1
@<TRIPOS>MOLECULE
*****
 31 35 0 0 0
SMALL
GASTEIGER

@<TRIPOS>ATOM
      1 O         138.8836  144.4496  165.6360 O.2     1  UNL1       -0.2258
      2 C         139.9096  143.5698  164.9855 C.2     1  UNL1        0.4086
      3 O         140.4953  143.7607  163.6177 O.3     1  UNL1       -0.4398
      4 C         141.4777  142.6534  163.3754 C.3     1  UNL1        0.1561
      5 C         141.3490  143.6159  162.2322 C.3     1  UNL1        0.0425
      6 C         142.1664  143.4186  160.9900 C.3     1  UNL1        0.0160
      7 C         143.1124  142.2588  160.8911 C.3     1  UNL1        0.1122
      8 C         143.2411  141.2962  162.0343 C.3     1  UNL1        0.0160
      9 C         142.4237  141.4936  163.2765 C.3     1  UNL1        0.0425
     10 C         141.4992  141.7780  164.5934 C.3     1  UNL1        0.1415
     11 N         140.5301  142.3444  165.5884 N.am    1  UNL1       -0.2200
     12 C         143.9298  142.0615  159.6489 C.2     1  UNL1        0.3506
     13 N         145.1080  142.8889  159.2281 N.2     1  UNL1       -0.0350
     14 C         145.6188  142.3409  157.9285 C.2     1  UNL1        0.2348
     15 C         146.7579  142.7531  157.0439 C.2     1  UNL1        0.0869
     16 C         147.0345  141.9991  155.7770 C.2     1  UNL1        0.1468
     17 C         146.1720  140.8330  155.3947 C.2     1  UNL1        0.0200
     18 C         145.0329  140.4208  156.2793 C.3     1  UNL1        0.1068
     19 C         144.7563  141.1747  157.5462 C.2     1  UNL1        0.2176
     20 N         143.7124  141.0020  158.6095 N.2     1  UNL1       -0.0389
     21 O         148.1736  142.4113  154.8924 O.2     1  UNL1       -0.4047
     22 C         149.4428  141.6119  154.8825 C.3     1  UNL1        0.5753
     23 F         150.7120  140.8125  154.8726 F       1  UNL1       -0.1328
     24 F         149.1606  141.1812  153.4737 F       1  UNL1       -0.1328
     25 F         149.7251  142.0426  156.2913 F       1  UNL1       -0.1328
     26 C         140.2336  141.7838  166.9477 C.ar    1  UNL1        0.0762
     27 C         140.5406  142.5899  168.1748 C.ar    1  UNL1        0.0182
     28 C         140.2440  142.0293  169.5341 C.ar    1  UNL1        0.0220
     29 C         139.6404  140.6625  169.6663 C.ar    1  UNL1        0.0990
     30 N         139.3334  139.8562  168.4392 N.ar    1  UNL1       -0.2410
     31 C         139.6300  140.4169  167.0799 C.ar    1  UNL1        0.1138
@<TRIPOS>BOND
     1     1     2    2
     2     2     3    1
     3     3     4    1
     4     4     5    1
     5     5     6    1
     6     6     7    1
     7     7    12    1
     8    12    13    2
     9    13    14    1
    10    14    15    2
    11    15    16    1
    12    16    21    1
    13    21    22    1
    14    22    23    1
    15    22    24    1
    16    22    25    1
    17    16    17    2
    18    17    18    1
    19    18    19    1
    20    19    20    2
    21     7     8    1
    22     8     9    1
    23     4    10    1
    24    10    11    1
    25    11    26    1
    26    26    27   ar
    27    27    28   ar
    28    28    29   ar
    29    29    30   ar
    30    30    31   ar
    31    11     2   am
    32    31    26   ar
    33     9     4    1
    34    20    12    1
    35    19    14    1
@<TRIPOS>MOLECULE
*****
 31 35 0 0 0
SMALL
GASTEIGER

@<TRIPOS>ATOM
      1 O         137.6864  138.8073  168.3157 O.2     1  UNL1       -0.2258
      2 C         138.5986  139.1777  167.1841 C.2     1  UNL1        0.4086
      3 O         138.4852  138.6986  165.7671 O.3     1  UNL1       -0.4398
      4 C         139.6009  139.3170  164.9780 C.3     1  UNL1        0.1561
      5 C         138.7070  138.4218  164.1722 C.3     1  UNL1        0.0425
      6 C         138.9730  138.2153  162.7105 C.3     1  UNL1        0.0160
      7 C         140.1330  138.9039  162.0546 C.3     1  UNL1        0.1122
      8 C         141.0270  139.7992  162.8604 C.3     1  UNL1        0.0160
      9 C         140.7609  140.0057  164.3221 C.3     1  UNL1        0.0425
     10 C         140.4040  140.1783  165.9073 C.3     1  UNL1        0.1415
     11 N         139.7845  140.0922  167.2707 N.am    1  UNL1       -0.2200
     12 C         140.3990  138.6974  160.5929 C.2     1  UNL1        0.3506
     13 N         141.6423  138.1056  159.9980 N.2     1  UNL1       -0.0350
     14 C         141.4801  138.0888  158.5069 C.2     1  UNL1        0.2348
     15 C         142.3822  137.6192  157.4043 C.2     1  UNL1        0.0869
     16 C         141.9407  137.7310  155.9751 C.2     1  UNL1        0.1468
     17 C         140.5971  138.3124  155.6485 C.2     1  UNL1        0.0200
     18 C         139.6950  138.7820  156.7510 C.3     1  UNL1        0.1068
     19 C         140.1364  138.6702  158.1802 C.2     1  UNL1        0.2176
     20 N         139.4683  139.0463  159.4694 N.2     1  UNL1       -0.0389
     21 O         142.8429  137.2615  154.8725 O.2     1  UNL1       -0.4047
     22 C         143.1418  135.7995  154.7194 C.3     1  UNL1        0.5753
     23 F         143.4408  134.3376  154.5664 F       1  UNL1       -0.1328
     24 F         144.5108  136.0196  155.2915 F       1  UNL1       -0.1328
     25 F         141.7728  135.5794  154.1474 F       1  UNL1       -0.1328
     26 C         140.2663  140.7968  168.5040 C.ar    1  UNL1        0.0762
     27 C         140.5622  140.0130  169.7483 C.ar    1  UNL1        0.0182
     28 C         141.0440  140.7177  170.9817 C.ar    1  UNL1        0.0220
     29 C         141.2300  142.2061  170.9709 C.ar    1  UNL1        0.0990
     30 N         140.9341  142.9899  169.7266 N.ar    1  UNL1       -0.2410
     31 C         140.4523  142.2851  168.4932 C.ar    1  UNL1        0.1138
@<TRIPOS>BOND
     1     1     2    2
     2     2     3    1
     3     3     4    1
     4     4     5    1
     5     5     6    1
     6     6     7    1
     7     7    12    1
     8    12    13    2
     9    13    14    1
    10    14    15    2
    11    15    16    1
    12    16    21    1
    13    21    22    1
    14    22    23    1
    15    22    24    1
    16    22    25    1
    17    16    17    2
    18    17    18    1
    19    18    19    1
    20    19    20    2
    21     7     8    1
    22     8     9    1
    23     4    10    1
    24    10    11    1
    25    11    26    1
    26    26    27   ar
    27    27    28   ar
    28    28    29   ar
    29    29    30   ar
    30    30    31   ar
    31    11     2   am
    32    31    26   ar
    33     9     4    1
    34    20    12    1
    35    19    14    1
@<TRIPOS>MOLECULE
*****
 31 35 0 0 0
SMALL
GASTEIGER

@<TRIPOS>ATOM
      1 O         142.9852  138.7798  168.7484 O.2     1  UNL1       -0.2258
      2 C         142.6616  139.5001  167.4731 C.2     1  UNL1        0.4086
      3 O         143.1692  139.1454  166.1069 O.3     1  UNL1       -0.4398
      4 C         142.5949  140.1277  165.1295 C.3     1  UNL1        0.1561
      5 C         143.4865  139.0959  164.5048 C.3     1  UNL1        0.0425
      6 C         143.7317  139.1134  163.0251 C.3     1  UNL1        0.0160
      7 C         143.0852  140.1627  162.1701 C.3     1  UNL1        0.1122
      8 C         142.1935  141.1945  162.7948 C.3     1  UNL1        0.0160
      9 C         141.9484  141.1770  164.2745 C.3     1  UNL1        0.0425
     10 C         141.7323  141.0895  165.8917 C.3     1  UNL1        0.1415
     11 N         141.7735  140.7017  167.3401 N.am    1  UNL1       -0.2200
     12 C         143.3304  140.1801  160.6903 C.2     1  UNL1        0.3506
     13 N         144.0457  141.2556  159.9278 N.2     1  UNL1       -0.0350
     14 C         144.0607  140.8653  158.4795 C.2     1  UNL1        0.2348
     15 C         144.6261  141.5388  157.2643 C.2     1  UNL1        0.0869
     16 C         144.4854  140.8954  155.9165 C.2     1  UNL1        0.1468
     17 C         143.7794  139.5786  155.7841 C.2     1  UNL1        0.0200
     18 C         143.2140  138.9051  156.9993 C.3     1  UNL1        0.1068
     19 C         143.3547  139.5484  158.3470 C.2     1  UNL1        0.2176
     20 N         142.9033  139.1250  159.7134 N.2     1  UNL1       -0.0389
     21 O         145.0507  141.5689  154.7013 O.2     1  UNL1       -0.4047
     22 C         146.3767  142.2660  154.7788 C.3     1  UNL1        0.5753
     23 F         147.7025  142.9632  154.8562 F       1  UNL1       -0.1328
     24 F         145.6976  143.5832  154.5470 F       1  UNL1       -0.1328
     25 F         147.0558  140.9488  155.0105 F       1  UNL1       -0.1328
     26 C         141.0532  141.3938  168.4590 C.ar    1  UNL1        0.0762
     27 C         141.3659  142.8251  168.7804 C.ar    1  UNL1        0.0182
     28 C         140.6455  143.5173  169.8994 C.ar    1  UNL1        0.0220
     29 C         139.6124  142.7780  170.6970 C.ar    1  UNL1        0.0990
     30 N         139.2997  141.3465  170.3756 N.ar    1  UNL1       -0.2410
     31 C         140.0201  140.6545  169.2566 C.ar    1  UNL1        0.1138
@<TRIPOS>BOND
     1     1     2    2
     2     2     3    1
     3     3     4    1
     4     4     5    1
     5     5     6    1
     6     6     7    1
     7     7    12    1
     8    12    13    2
     9    13    14    1
    10    14    15    2
    11    15    16    1
    12    16    21    1
    13    21    22    1
    14    22    23    1
    15    22    24    1
    16    22    25    1
    17    16    17    2
    18    17    18    1
    19    18    19    1
    20    19    20    2
    21     7     8    1
    22     8     9    1
    23     4    10    1
    24    10    11    1
    25    11    26    1
    26    26    27   ar
    27    27    28   ar
    28    28    29   ar
    29    29    30   ar
    30    30    31   ar
    31    11     2   am
    32    31    26   ar
    33     9     4    1
    34    20    12    1
    35    19    14    1
