@<TRIPOS>MOLECULE
*****
 31 35 0 0 0
SMALL
GASTEIGER

@<TRIPOS>ATOM
      1 C         140.5224  140.9825  166.8100 C.ar    1  UNL1        0.0015
      2 C         140.7581  139.5075  166.6724 C.ar    1  UNL1        0.0031
      3 C         140.1949  138.7644  165.4973 C.ar    1  UNL1        0.0366
      4 C         139.3961  139.4963  164.4600 C.ar    1  UNL1        0.1360
      5 C         139.1604  140.9712  164.5976 C.ar    1  UNL1        0.0357
      6 C         139.7235  141.7144  165.7727 C.ar    1  UNL1        0.0007
      7 C         138.3615  141.7031  163.5602 C.3     1  UNL1        0.1580
      8 C         137.5868  142.5649  162.6077 C.3     1  UNL1        0.2351
      9 O         137.6056  143.9697  163.1334 O.2     1  UNL1       -0.4478
     10 C         138.3919  143.9762  164.4107 C.2     1  UNL1        0.2770
     11 N         138.6634  145.1732  165.2728 N.pl3   1  UNL1       -0.3133
     12 N         138.8591  142.5754  164.6745 N.2     1  UNL1       -0.2202
     13 C         137.7984  140.9601  162.3852 C.3     1  UNL1        0.1141
     14 C         138.0212  140.7559  162.6746 C.3     1  UNL1        0.1501
     15 O         137.7870  140.9705  162.3704 O.3     1  UNL1       -0.3532
     16 C         138.0212  140.7559  162.6746 C.3     1  UNL1        0.1501
     17 C         138.0341  139.4852  162.2475 C.3     1  UNL1        0.1398
     18 C         137.9866  138.0970  161.6813 C.3     1  UNL1        0.0438
     19 C         137.2187  139.7349  161.0134 C.3     1  UNL1        0.0438
     20 O         138.8329  138.7533  163.2849 O.3     1  UNL1       -0.4826
     21 H         138.3122  146.0558  165.0143 H       1  UNL1        0.1466
     22 H         139.1929  145.0762  166.0971 H       1  UNL1        0.1466
     23 C         140.9106  143.6448  169.7274 C.ar    1  UNL1        0.0608
     24 C         142.2118  143.2117  170.3352 C.ar    1  UNL1        0.1071
     25 N         142.9498  142.0355  169.7679 N.ar    1  UNL1       -0.2417
     26 C         142.3867  141.2924  168.5928 C.ar    1  UNL1        0.0989
     27 C         141.0855  141.7255  167.9851 C.ar    1  UNL1        0.0198
     28 C         140.3475  142.9018  168.5524 C.ar    1  UNL1        0.0113
     29 C         138.6965  147.1735  171.4292 C.3     1  UNL1        0.0903
     30 C         139.4345  145.9973  170.8619 C.1     1  UNL1       -0.0853
     31 C         140.1726  144.8210  170.2947 C.1     1  UNL1       -0.0628
@<TRIPOS>BOND
     1    29    30    1
     2    30    31    3
     3    31    23    1
     4    23    24   ar
     5    24    25   ar
     6    25    26   ar
     7    26    27   ar
     8    27     1    1
     9     1     2   ar
    10     2     3   ar
    11     3     4   ar
    12     4     5   ar
    13     5     6   ar
    14     5     7    1
    15     7     8    1
    16     8     9    1
    17     9    10    1
    18    10    11    1
    19    10    12    2
    20     7    13    1
    21    13    14    1
    22    14    15    1
    23    15    16    1
    24    13    17    1
    25    17    18    1
    26    17    19    1
    27    17    20    1
    28    27    28   ar
    29    28    23   ar
    30     6     1   ar
    31    12     7    1
    32    16    13    1
    33    20     4    1
    34    11    21    1
    35    11    22    1
@<TRIPOS>MOLECULE
*****
 31 35 0 0 0
SMALL
GASTEIGER

@<TRIPOS>ATOM
      1 C         141.9494  140.9101  166.5397 C.ar    1  UNL1        0.0015
      2 C         143.2477  141.5163  166.0957 C.ar    1  UNL1        0.0031
      3 C         143.8509  141.1177  164.7815 C.ar    1  UNL1        0.0366
      4 C         143.1559  140.1129  163.9113 C.ar    1  UNL1        0.1360
      5 C         141.8577  139.5067  164.3552 C.ar    1  UNL1        0.0357
      6 C         141.2544  139.9053  165.6695 C.ar    1  UNL1        0.0007
      7 C         141.1628  138.5018  163.4850 C.3     1  UNL1        0.1580
      8 C         140.3569  137.4899  162.7256 C.3     1  UNL1        0.2351
      9 O         139.1385  137.1638  163.5376 O.2     1  UNL1       -0.4478
     10 C         139.1914  137.9740  164.7988 C.2     1  UNL1        0.2770
     11 N         138.1723  137.9599  165.8993 N.pl3   1  UNL1       -0.3133
     12 N         140.4425  138.8010  164.7663 N.2     1  UNL1       -0.2202
     13 C         141.7660  138.1032  162.1708 C.3     1  UNL1        0.1141
     14 C         141.9599  138.3835  162.4136 C.3     1  UNL1        0.1501
     15 O         141.7561  138.0889  162.1584 O.3     1  UNL1       -0.3532
     16 C         141.9599  138.3835  162.4136 C.3     1  UNL1        0.1501
     17 C         143.0642  138.7094  161.7268 C.3     1  UNL1        0.1398
     18 C         144.2660  139.0019  160.8783 C.3     1  UNL1        0.0438
     19 C         142.7867  137.8061  160.5618 C.3     1  UNL1        0.0438
     20 O         143.7592  139.7142  162.5971 O.3     1  UNL1       -0.4826
     21 H         137.3797  137.3801  165.8288 H       1  UNL1        0.1466
     22 H         138.2959  138.5304  166.6920 H       1  UNL1        0.1466
     23 C         139.5602  140.9594  169.7082 C.ar    1  UNL1        0.0608
     24 C         140.1396  142.1060  170.4824 C.ar    1  UNL1        0.1071
     25 N         141.3223  142.8540  169.9424 N.ar    1  UNL1       -0.2417
     26 C         141.9256  142.4554  168.6281 C.ar    1  UNL1        0.0989
     27 C         141.3462  141.3088  167.8539 C.ar    1  UNL1        0.0198
     28 C         140.1634  140.5607  168.3940 C.ar    1  UNL1        0.0113
     29 C         136.0120  138.7152  171.3281 C.3     1  UNL1        0.0903
     30 C         137.1947  139.4632  170.7882 C.1     1  UNL1       -0.0853
     31 C         138.3774  140.2113  170.2481 C.1     1  UNL1       -0.0628
@<TRIPOS>BOND
     1    29    30    1
     2    30    31    3
     3    31    23    1
     4    23    24   ar
     5    24    25   ar
     6    25    26   ar
     7    26    27   ar
     8    27     1    1
     9     1     2   ar
    10     2     3   ar
    11     3     4   ar
    12     4     5   ar
    13     5     6   ar
    14     5     7    1
    15     7     8    1
    16     8     9    1
    17     9    10    1
    18    10    11    1
    19    10    12    2
    20     7    13    1
    21    13    14    1
    22    14    15    1
    23    15    16    1
    24    13    17    1
    25    17    18    1
    26    17    19    1
    27    17    20    1
    28    27    28   ar
    29    28    23   ar
    30     6     1   ar
    31    12     7    1
    32    16    13    1
    33    20     4    1
    34    11    21    1
    35    11    22    1
@<TRIPOS>MOLECULE
*****
 31 35 0 0 0
SMALL
GASTEIGER

@<TRIPOS>ATOM
      1 C         142.8402  141.9334  165.2155 C.ar    1  UNL1        0.0015
      2 C         143.5556  142.5185  166.3971 C.ar    1  UNL1        0.0031
      3 C         143.0171  142.3055  167.7807 C.ar    1  UNL1        0.0366
      4 C         141.7633  141.5074  167.9830 C.ar    1  UNL1        0.1360
      5 C         141.0479  140.9222  166.8015 C.ar    1  UNL1        0.0357
      6 C         141.5864  141.1352  165.4177 C.ar    1  UNL1        0.0007
      7 C         139.7941  140.1241  167.0037 C.3     1  UNL1        0.1580
      8 C         138.5365  139.3078  167.0500 C.3     1  UNL1        0.2351
      9 O         138.1759  138.9317  165.6433 O.2     1  UNL1       -0.4478
     10 C         139.2107  139.5155  164.7277 C.2     1  UNL1        0.2770
     11 N         139.2402  139.3853  163.2338 N.pl3   1  UNL1       -0.3133
     12 N         140.2108  140.2524  165.5684 N.2     1  UNL1       -0.2202
     13 C         139.2556  139.9110  168.3874 C.3     1  UNL1        0.1141
     14 C         139.6054  140.1337  168.3310 C.3     1  UNL1        0.1501
     15 O         139.2377  139.8997  168.3903 O.3     1  UNL1       -0.3532
     16 C         139.6054  140.1337  168.3310 C.3     1  UNL1        0.1501
     17 C         139.9710  140.4962  169.5689 C.3     1  UNL1        0.1398
     18 C         140.2892  140.8463  170.9923 C.3     1  UNL1        0.0438
     19 C         138.8276  139.8196  170.2655 C.3     1  UNL1        0.0438
     20 O         141.2248  141.2943  169.3666 O.3     1  UNL1       -0.4826
     21 H         138.5350  138.8786  162.7698 H       1  UNL1        0.1466
     22 H         139.9647  139.8065  162.7171 H       1  UNL1        0.1466
     23 C         143.1070  143.1137  161.4359 C.ar    1  UNL1        0.0608
     24 C         144.4557  142.5725  161.0644 C.ar    1  UNL1        0.1071
     25 N         145.2660  141.8183  162.0766 N.ar    1  UNL1       -0.2417
     26 C         144.7275  141.6052  163.4604 C.ar    1  UNL1        0.0989
     27 C         143.3787  142.1464  163.8318 C.ar    1  UNL1        0.0198
     28 C         142.5685  142.9007  162.8196 C.ar    1  UNL1        0.0113
     29 C         140.6761  145.3764  158.3993 C.3     1  UNL1        0.0903
     30 C         141.4864  144.6222  159.4115 C.1     1  UNL1       -0.0853
     31 C         142.2967  143.8679  160.4237 C.1     1  UNL1       -0.0628
@<TRIPOS>BOND
     1    29    30    1
     2    30    31    3
     3    31    23    1
     4    23    24   ar
     5    24    25   ar
     6    25    26   ar
     7    26    27   ar
     8    27     1    1
     9     1     2   ar
    10     2     3   ar
    11     3     4   ar
    12     4     5   ar
    13     5     6   ar
    14     5     7    1
    15     7     8    1
    16     8     9    1
    17     9    10    1
    18    10    11    1
    19    10    12    2
    20     7    13    1
    21    13    14    1
    22    14    15    1
    23    15    16    1
    24    13    17    1
    25    17    18    1
    26    17    19    1
    27    17    20    1
    28    27    28   ar
    29    28    23   ar
    30     6     1   ar
    31    12     7    1
    32    16    13    1
    33    20     4    1
    34    11    21    1
    35    11    22    1
@<TRIPOS>MOLECULE
*****
 31 35 0 0 0
SMALL
GASTEIGER

@<TRIPOS>ATOM
      1 C         142.8188  141.7237  164.8065 C.ar    1  UNL1        0.0015
      2 C         143.5543  142.4040  165.9229 C.ar    1  UNL1        0.0031
      3 C         143.0414  142.3048  167.3290 C.ar    1  UNL1        0.0366
      4 C         141.7931  141.5253  167.6187 C.ar    1  UNL1        0.1360
      5 C         141.0576  140.8450  166.5024 C.ar    1  UNL1        0.0357
      6 C         141.5704  140.9442  165.0962 C.ar    1  UNL1        0.0007
      7 C         139.8092  140.0654  166.7921 C.3     1  UNL1        0.1580
      8 C         138.5543  139.2551  166.9281 C.3     1  UNL1        0.2351
      9 O         138.1690  138.7648  165.5637 O.2     1  UNL1       -0.4478
     10 C         139.1858  139.2722  164.5846 C.2     1  UNL1        0.2770
     11 N         139.1885  139.0200  163.1061 N.pl3   1  UNL1       -0.3133
     12 N         140.1996  140.0760  165.3438 N.2     1  UNL1       -0.2202
     13 C         139.2964  139.9662  168.1982 C.3     1  UNL1        0.1141
     14 C         139.6447  140.1837  168.1174 C.3     1  UNL1        0.1501
     15 O         139.2786  139.9551  168.2023 O.3     1  UNL1       -0.3532
     16 C         139.6447  140.1837  168.1174 C.3     1  UNL1        0.1501
     17 C         140.0318  140.6465  169.3145 C.3     1  UNL1        0.1398
     18 C         140.3751  141.1122  170.6984 C.3     1  UNL1        0.0438
     19 C         138.9027  140.0287  170.0850 C.3     1  UNL1        0.0438
     20 O         141.2802  141.4260  169.0248 O.3     1  UNL1       -0.4826
     21 H         138.4760  138.4767  162.6981 H       1  UNL1        0.1466
     22 H         139.9026  139.3979  162.5436 H       1  UNL1        0.1466
     23 C         143.5426  140.8337  161.0073 C.ar    1  UNL1        0.0608
     24 C         144.3574  142.0214  160.5882 C.ar    1  UNL1        0.1071
     25 N         144.6593  143.1098  161.5752 N.ar    1  UNL1       -0.2417
     26 C         144.1464  143.0106  162.9813 C.ar    1  UNL1        0.0989
     27 C         143.3316  141.8230  163.4004 C.ar    1  UNL1        0.0198
     28 C         143.0298  140.7345  162.4134 C.ar    1  UNL1        0.0113
     29 C         142.6370  137.5684  158.0463 C.3     1  UNL1        0.0903
     30 C         142.9389  138.6568  159.0333 C.1     1  UNL1       -0.0853
     31 C         143.2408  139.7453  160.0203 C.1     1  UNL1       -0.0628
@<TRIPOS>BOND
     1    29    30    1
     2    30    31    3
     3    31    23    1
     4    23    24   ar
     5    24    25   ar
     6    25    26   ar
     7    26    27   ar
     8    27     1    1
     9     1     2   ar
    10     2     3   ar
    11     3     4   ar
    12     4     5   ar
    13     5     6   ar
    14     5     7    1
    15     7     8    1
    16     8     9    1
    17     9    10    1
    18    10    11    1
    19    10    12    2
    20     7    13    1
    21    13    14    1
    22    14    15    1
    23    15    16    1
    24    13    17    1
    25    17    18    1
    26    17    19    1
    27    17    20    1
    28    27    28   ar
    29    28    23   ar
    30     6     1   ar
    31    12     7    1
    32    16    13    1
    33    20     4    1
    34    11    21    1
    35    11    22    1
@<TRIPOS>MOLECULE
*****
 31 35 0 0 0
SMALL
GASTEIGER

@<TRIPOS>ATOM
      1 C         138.6362  140.6363  159.8874 C.ar    1  UNL1        0.0015
      2 C         138.9075  139.1640  159.7923 C.ar    1  UNL1        0.0031
      3 C         138.9457  138.3266  161.0362 C.ar    1  UNL1        0.0366
      4 C         138.7128  138.9613  162.3751 C.ar    1  UNL1        0.1360
      5 C         138.4415  140.4335  162.4703 C.ar    1  UNL1        0.0357
      6 C         138.4033  141.2710  161.2264 C.ar    1  UNL1        0.0007
      7 C         138.2086  141.0683  163.8092 C.3     1  UNL1        0.1580
      8 C         137.9582  141.8389  165.0715 C.3     1  UNL1        0.2351
      9 O         137.7350  143.2753  164.7012 O.2     1  UNL1       -0.4478
     10 C         137.8474  143.3924  163.2100 C.2     1  UNL1        0.2770
     11 N         137.6940  144.6521  162.4105 N.pl3   1  UNL1       -0.3133
     12 N         138.1401  142.0284  162.6587 N.2     1  UNL1       -0.2202
     13 C         138.2468  140.2308  165.0531 C.3     1  UNL1        0.1141
     14 C         138.3118  140.0537  164.6795 C.3     1  UNL1        0.1501
     15 O         138.2435  140.2399  165.0722 O.3     1  UNL1       -0.3532
     16 C         138.3118  140.0537  164.6795 C.3     1  UNL1        0.1501
     17 C         138.5181  138.7586  164.9579 C.3     1  UNL1        0.1398
     18 C         138.7345  137.3352  165.3787 C.3     1  UNL1        0.0438
     19 C         138.3603  138.8990  166.4431 C.3     1  UNL1        0.0438
     20 O         138.7510  138.1239  163.6190 O.3     1  UNL1       -0.4826
     21 H         137.5014  145.5036  162.8656 H       1  UNL1        0.1466
     22 H         137.7860  144.6275  161.4306 H       1  UNL1        0.1466
     23 C         137.4643  142.1115  156.3945 C.ar    1  UNL1        0.0608
     24 C         138.5214  143.1486  156.1558 C.ar    1  UNL1        0.1071
     25 N         139.6167  143.3483  157.1609 N.ar    1  UNL1       -0.2417
     26 C         139.6550  142.5108  158.4048 C.ar    1  UNL1        0.0989
     27 C         138.5980  141.4737  158.6436 C.ar    1  UNL1        0.0198
     28 C         137.5026  141.2741  157.6384 C.ar    1  UNL1        0.0113
     29 C         134.1783  141.5125  153.3791 C.3     1  UNL1        0.0903
     30 C         135.2736  141.7122  154.3842 C.1     1  UNL1       -0.0853
     31 C         136.3690  141.9118  155.3894 C.1     1  UNL1       -0.0628
@<TRIPOS>BOND
     1    29    30    1
     2    30    31    3
     3    31    23    1
     4    23    24   ar
     5    24    25   ar
     6    25    26   ar
     7    26    27   ar
     8    27     1    1
     9     1     2   ar
    10     2     3   ar
    11     3     4   ar
    12     4     5   ar
    13     5     6   ar
    14     5     7    1
    15     7     8    1
    16     8     9    1
    17     9    10    1
    18    10    11    1
    19    10    12    2
    20     7    13    1
    21    13    14    1
    22    14    15    1
    23    15    16    1
    24    13    17    1
    25    17    18    1
    26    17    19    1
    27    17    20    1
    28    27    28   ar
    29    28    23   ar
    30     6     1   ar
    31    12     7    1
    32    16    13    1
    33    20     4    1
    34    11    21    1
    35    11    22    1
@<TRIPOS>MOLECULE
*****
 31 35 0 0 0
SMALL
GASTEIGER

@<TRIPOS>ATOM
      1 C         140.7536  142.8985  164.7258 C.ar    1  UNL1        0.0015
      2 C         139.9983  143.5503  165.8460 C.ar    1  UNL1        0.0031
      3 C         140.0873  142.9919  167.2353 C.ar    1  UNL1        0.0366
      4 C         140.9316  141.7817  167.5045 C.ar    1  UNL1        0.1360
      5 C         141.6869  141.1298  166.3845 C.ar    1  UNL1        0.0357
      6 C         141.5979  141.6882  164.9951 C.ar    1  UNL1        0.0007
      7 C         142.5312  139.9196  166.6537 C.3     1  UNL1        0.1580
      8 C         143.4110  138.7103  166.7700 C.3     1  UNL1        0.2351
      9 O         143.9629  138.4059  165.4088 O.2     1  UNL1       -0.4478
     10 C         143.4241  139.4270  164.4512 C.2     1  UNL1        0.2770
     11 N         143.7184  139.4998  162.9823 N.pl3   1  UNL1       -0.3133
     12 N         142.5392  140.3625  165.2206 N.2     1  UNL1       -0.2202
     13 C         142.6202  139.3612  168.0430 C.3     1  UNL1        0.1141
     14 C         142.3846  139.6989  167.9679 C.3     1  UNL1        0.1501
     15 O         142.6322  139.3439  168.0469 O.3     1  UNL1       -0.3532
     16 C         142.3846  139.6989  167.9679 C.3     1  UNL1        0.1501
     17 C         141.8649  140.0130  169.1631 C.3     1  UNL1        0.1398
     18 C         141.3395  140.2763  170.5432 C.3     1  UNL1        0.0438
     19 C         142.5267  138.8942  169.9117 C.3     1  UNL1        0.0438
     20 O         141.0206  141.2233  168.8938 O.3     1  UNL1       -0.4826
     21 H         144.3151  138.8364  162.5663 H       1  UNL1        0.1466
     22 H         143.3149  140.2111  162.4341 H       1  UNL1        0.1466
     23 C         141.6060  143.6439  160.9222 C.ar    1  UNL1        0.0608
     24 C         140.4867  144.5737  160.5578 C.ar    1  UNL1        0.1071
     25 N         139.4565  144.9451  161.5828 N.ar    1  UNL1       -0.2417
     26 C         139.5454  144.3867  162.9722 C.ar    1  UNL1        0.0989
     27 C         140.6647  143.4569  163.3365 C.ar    1  UNL1        0.0198
     28 C         141.6949  143.0855  162.3115 C.ar    1  UNL1        0.0113
     29 C         144.6968  142.5296  157.8473 C.3     1  UNL1        0.0903
     30 C         143.6665  142.9010  158.8722 C.1     1  UNL1       -0.0853
     31 C         142.6362  143.2725  159.8972 C.1     1  UNL1       -0.0628
@<TRIPOS>BOND
     1    29    30    1
     2    30    31    3
     3    31    23    1
     4    23    24   ar
     5    24    25   ar
     6    25    26   ar
     7    26    27   ar
     8    27     1    1
     9     1     2   ar
    10     2     3   ar
    11     3     4   ar
    12     4     5   ar
    13     5     6   ar
    14     5     7    1
    15     7     8    1
    16     8     9    1
    17     9    10    1
    18    10    11    1
    19    10    12    2
    20     7    13    1
    21    13    14    1
    22    14    15    1
    23    15    16    1
    24    13    17    1
    25    17    18    1
    26    17    19    1
    27    17    20    1
    28    27    28   ar
    29    28    23   ar
    30     6     1   ar
    31    12     7    1
    32    16    13    1
    33    20     4    1
    34    11    21    1
    35    11    22    1
@<TRIPOS>MOLECULE
*****
 31 35 0 0 0
SMALL
GASTEIGER

@<TRIPOS>ATOM
      1 C         141.3253  142.6819  164.2202 C.ar    1  UNL1        0.0015
      2 C         140.3955  143.4074  165.1472 C.ar    1  UNL1        0.0031
      3 C         140.2432  142.9486  166.5671 C.ar    1  UNL1        0.0366
      4 C         141.0206  141.7643  167.0601 C.ar    1  UNL1        0.1360
      5 C         141.9504  141.0389  166.1332 C.ar    1  UNL1        0.0357
      6 C         142.1027  141.4976  164.7132 C.ar    1  UNL1        0.0007
      7 C         142.7278  139.8546  166.6263 C.3     1  UNL1        0.1580
      8 C         143.5663  138.6607  166.9750 C.3     1  UNL1        0.2351
      9 O         144.3391  138.2638  165.7521 O.2     1  UNL1       -0.4478
     10 C         143.9782  139.2124  164.6476 C.2     1  UNL1        0.2770
     11 N         144.5182  139.1831  163.2486 N.pl3   1  UNL1       -0.3133
     12 N         142.9824  140.1956  165.1878 N.2     1  UNL1       -0.2202
     13 C         142.5754  139.3958  168.0462 C.3     1  UNL1        0.1141
     14 C         142.3585  139.7262  167.9087 C.3     1  UNL1        0.1501
     15 O         142.5865  139.3789  168.0533 O.3     1  UNL1       -0.3532
     16 C         142.3585  139.7262  167.9087 C.3     1  UNL1        0.1501
     17 C         141.6457  140.1213  168.9731 C.3     1  UNL1        0.1398
     18 C         140.8955  140.4785  170.2219 C.3     1  UNL1        0.0438
     19 C         142.1625  139.0610  169.8999 C.3     1  UNL1        0.0438
     20 O         140.8683  141.3055  168.4801 O.3     1  UNL1       -0.4826
     21 H         145.1721  138.4948  162.9877 H       1  UNL1        0.1466
     22 H         144.2189  139.8521  162.5913 H       1  UNL1        0.1466
     23 C         140.5794  143.2588  160.3652 C.ar    1  UNL1        0.0608
     24 C         141.7823  144.0583  159.9603 C.ar    1  UNL1        0.1071
     25 N         142.8328  144.3990  160.9753 N.ar    1  UNL1       -0.2417
     26 C         142.6805  143.9402  162.3953 C.ar    1  UNL1        0.0989
     27 C         141.4776  143.1407  162.8003 C.ar    1  UNL1        0.0198
     28 C         140.4271  142.8000  161.7852 C.ar    1  UNL1        0.0113
     29 C         137.4278  142.2367  157.3202 C.3     1  UNL1        0.0903
     30 C         138.4783  142.5774  158.3352 C.1     1  UNL1       -0.0853
     31 C         139.5289  142.9181  159.3502 C.1     1  UNL1       -0.0628
@<TRIPOS>BOND
     1    29    30    1
     2    30    31    3
     3    31    23    1
     4    23    24   ar
     5    24    25   ar
     6    25    26   ar
     7    26    27   ar
     8    27     1    1
     9     1     2   ar
    10     2     3   ar
    11     3     4   ar
    12     4     5   ar
    13     5     6   ar
    14     5     7    1
    15     7     8    1
    16     8     9    1
    17     9    10    1
    18    10    11    1
    19    10    12    2
    20     7    13    1
    21    13    14    1
    22    14    15    1
    23    15    16    1
    24    13    17    1
    25    17    18    1
    26    17    19    1
    27    17    20    1
    28    27    28   ar
    29    28    23   ar
    30     6     1   ar
    31    12     7    1
    32    16    13    1
    33    20     4    1
    34    11    21    1
    35    11    22    1
@<TRIPOS>MOLECULE
*****
 31 35 0 0 0
SMALL
GASTEIGER

@<TRIPOS>ATOM
      1 C         139.0721  140.0169  164.8286 C.ar    1  UNL1        0.0015
      2 C         138.1065  139.2588  165.6906 C.ar    1  UNL1        0.0031
      3 C         138.3256  139.1807  167.1725 C.ar    1  UNL1        0.0366
      4 C         139.5102  139.8607  167.7924 C.ar    1  UNL1        0.1360
      5 C         140.4758  140.6188  166.9304 C.ar    1  UNL1        0.0357
      6 C         140.2567  140.6969  165.4485 C.ar    1  UNL1        0.0007
      7 C         141.6604  141.2988  167.5503 C.3     1  UNL1        0.1580
      8 C         142.8836  142.0256  168.0253 C.3     1  UNL1        0.2351
      9 O         143.5515  142.6392  166.8305 O.2     1  UNL1       -0.4478
     10 C         142.7411  142.2917  165.6171 C.2     1  UNL1        0.2770
     11 N         143.0459  142.7007  164.2066 N.pl3   1  UNL1       -0.3133
     12 N         141.5723  141.4633  166.0619 N.2     1  UNL1       -0.2202
     13 C         141.8795  141.2207  169.0321 C.3     1  UNL1        0.1141
     14 C         141.5490  141.0310  168.8592 C.3     1  UNL1        0.1501
     15 O         141.8964  141.2304  169.0410 O.3     1  UNL1       -0.3532
     16 C         141.5490  141.0310  168.8592 C.3     1  UNL1        0.1501
     17 C         140.9140  140.4626  169.8941 C.3     1  UNL1        0.1398
     18 C         140.2839  139.8692  171.1191 C.3     1  UNL1        0.0438
     19 C         141.8798  140.9365  170.9395 C.3     1  UNL1        0.0438
     20 O         139.7293  139.7826  169.2742 O.3     1  UNL1       -0.4826
     21 H         143.8412  143.2480  164.0137 H       1  UNL1        0.1466
     22 H         142.4506  142.4219  163.4737 H       1  UNL1        0.1466
     23 C         139.6389  139.5749  160.9256 C.ar    1  UNL1        0.0608
     24 C         138.4149  140.2511  160.3830 C.ar    1  UNL1        0.1071
     25 N         137.4099  140.8493  161.3223 N.ar    1  UNL1       -0.2417
     26 C         137.6290  140.7712  162.8042 C.ar    1  UNL1        0.0989
     27 C         138.8530  140.0950  163.3468 C.ar    1  UNL1        0.0198
     28 C         139.8580  139.4968  162.4075 C.ar    1  UNL1        0.0113
     29 C         142.6539  137.7804  158.1079 C.3     1  UNL1        0.0903
     30 C         141.6489  138.3786  159.0471 C.1     1  UNL1       -0.0853
     31 C         140.6439  138.9768  159.9864 C.1     1  UNL1       -0.0628
@<TRIPOS>BOND
     1    29    30    1
     2    30    31    3
     3    31    23    1
     4    23    24   ar
     5    24    25   ar
     6    25    26   ar
     7    26    27   ar
     8    27     1    1
     9     1     2   ar
    10     2     3   ar
    11     3     4   ar
    12     4     5   ar
    13     5     6   ar
    14     5     7    1
    15     7     8    1
    16     8     9    1
    17     9    10    1
    18    10    11    1
    19    10    12    2
    20     7    13    1
    21    13    14    1
    22    14    15    1
    23    15    16    1
    24    13    17    1
    25    17    18    1
    26    17    19    1
    27    17    20    1
    28    27    28   ar
    29    28    23   ar
    30     6     1   ar
    31    12     7    1
    32    16    13    1
    33    20     4    1
    34    11    21    1
    35    11    22    1
@<TRIPOS>MOLECULE
*****
 31 35 0 0 0
SMALL
GASTEIGER

@<TRIPOS>ATOM
      1 C         142.0590  142.7014  164.1737 C.ar    1  UNL1        0.0015
      2 C         143.3229  143.0782  164.8883 C.ar    1  UNL1        0.0031
      3 C         143.5588  142.6083  166.2931 C.ar    1  UNL1        0.0366
      4 C         142.5309  141.7615  166.9833 C.ar    1  UNL1        0.1360
      5 C         141.2671  141.3847  166.2687 C.ar    1  UNL1        0.0357
      6 C         141.0311  141.8546  164.8639 C.ar    1  UNL1        0.0007
      7 C         140.2392  140.5379  166.9589 C.3     1  UNL1        0.1580
      8 C         139.1263  139.7014  167.5174 C.3     1  UNL1        0.2351
      9 O         138.0656  139.5780  166.4640 O.2     1  UNL1       -0.4478
     10 C         138.5228  140.3381  165.2544 C.2     1  UNL1        0.2770
     11 N         137.7691  140.4801  163.9654 N.pl3   1  UNL1       -0.3133
     12 N         139.8662  140.9315  165.5603 N.2     1  UNL1       -0.2202
     13 C         140.4751  140.0680  168.3637 C.3     1  UNL1        0.1141
     14 C         140.7619  140.3042  168.1711 C.3     1  UNL1        0.1501
     15 O         140.4604  140.0559  168.3735 O.3     1  UNL1       -0.3532
     16 C         140.7619  140.3042  168.1711 C.3     1  UNL1        0.1501
     17 C         141.7389  140.4448  169.0783 C.3     1  UNL1        0.1398
     18 C         142.7701  140.5388  170.1635 C.3     1  UNL1        0.0438
     19 C         141.0691  139.6307  170.1454 C.3     1  UNL1        0.0438
     20 O         142.7668  141.2916  168.3881 O.3     1  UNL1       -0.4826
     21 H         136.8893  140.0513  163.8598 H       1  UNL1        0.1466
     22 H         138.1543  141.0022  163.2249 H       1  UNL1        0.1466
     23 C         142.5644  143.2900  160.2816 C.ar    1  UNL1        0.0608
     24 C         141.3513  144.1113  159.9592 C.ar    1  UNL1        0.1071
     25 N         140.3742  144.4626  161.0416 N.ar    1  UNL1       -0.2417
     26 C         140.6100  143.9926  162.4465 C.ar    1  UNL1        0.0989
     27 C         141.8231  143.1714  162.7689 C.ar    1  UNL1        0.0198
     28 C         142.8004  142.8201  161.6864 C.ar    1  UNL1        0.0113
     29 C         145.4961  142.2361  157.0344 C.3     1  UNL1        0.0903
     30 C         144.5189  142.5874  158.1168 C.1     1  UNL1       -0.0853
     31 C         143.5416  142.9387  159.1992 C.1     1  UNL1       -0.0628
@<TRIPOS>BOND
     1    29    30    1
     2    30    31    3
     3    31    23    1
     4    23    24   ar
     5    24    25   ar
     6    25    26   ar
     7    26    27   ar
     8    27     1    1
     9     1     2   ar
    10     2     3   ar
    11     3     4   ar
    12     4     5   ar
    13     5     6   ar
    14     5     7    1
    15     7     8    1
    16     8     9    1
    17     9    10    1
    18    10    11    1
    19    10    12    2
    20     7    13    1
    21    13    14    1
    22    14    15    1
    23    15    16    1
    24    13    17    1
    25    17    18    1
    26    17    19    1
    27    17    20    1
    28    27    28   ar
    29    28    23   ar
    30     6     1   ar
    31    12     7    1
    32    16    13    1
    33    20     4    1
    34    11    21    1
    35    11    22    1
