@<TRIPOS>MOLECULE
*****
 36 39 0 0 0
SMALL
GASTEIGER

@<TRIPOS>ATOM
      1 C         138.4531  139.6986  163.0174 C.3     1  UNL1        0.1688
      2 C         138.5482  139.0817  161.6534 C.3     1  UNL1        0.0609
      3 C         138.4981  139.9510  160.4320 C.3     1  UNL1        0.0758
      4 N         138.3529  141.4371  160.5745 N.3     1  UNL1       -0.2724
      5 C         138.2578  142.0540  161.9385 C.3     1  UNL1        0.0758
      6 C         138.3079  141.1848  163.1600 C.3     1  UNL1        0.0609
      7 O         138.5033  138.8294  164.2388 O.3     1  UNL1       -0.4776
      8 C         139.7674  139.9715  167.8231 C.ar    1  UNL1       -0.0191
      9 C         138.8506  139.6197  166.6893 C.ar    1  UNL1        0.0342
     10 C         139.4201  139.1813  165.3727 C.ar    1  UNL1        0.1555
     11 C         140.9064  139.0947  165.1899 C.ar    1  UNL1        0.1151
     12 N         141.4759  138.6563  163.8733 N.ar    1  UNL1       -0.2408
     13 C         142.9622  138.5698  163.6906 C.ar    1  UNL1        0.0989
     14 C         143.8790  138.9216  164.8245 C.ar    1  UNL1        0.0207
     15 C         143.3095  139.3600  166.1411 C.ar    1  UNL1        0.0032
     16 C         141.8232  139.4466  166.3238 C.ar    1  UNL1        0.0204
     17 C         141.2537  139.8850  167.6404 C.ar    1  UNL1       -0.0026
     18 C         139.1979  140.4100  169.1398 C.3     1  UNL1        0.0265
     19 C         140.0651  141.1297  170.1297 C.3     1  UNL1        0.0047
     20 C         140.4748  143.6468  169.6335 C.3     1  UNL1        0.0000
     21 C         139.8073  142.5740  170.4418 C.3     1  UNL1        0.0003
     22 C         138.3028  142.3064  159.3531 C.3     1  UNL1        0.0721
     23 C         139.5616  142.9235  158.8196 C.3     1  UNL1        0.0188
     24 C         139.9562  144.3074  159.2429 C.3     1  UNL1        0.0202
     25 C         141.3982  144.6303  159.5003 C.3     1  UNL1        0.0911
     26 N         141.7962  145.3263  160.7681 N.3     1  UNL1       -0.1834
     27 H         141.5104  146.3006  160.6714 H       1  UNL1        0.1484
     28 S         141.2629  144.8474  162.0858 S.O2    1  UNL1        0.0390
     29 O         140.4358  146.0932  162.2038 O.2     1  UNL1       -0.1576
     30 O         142.0900  143.6017  161.9678 O.2     1  UNL1       -0.1576
     31 C         140.7296  144.3685  163.4035 C.3     1  UNL1        0.1456
     32 C         141.4942  143.3507  164.1968 C.3     1  UNL1        0.0252
     33 C         140.9610  142.8718  165.5145 C.3     1  UNL1        0.0018
     34 C         139.6631  143.4106  166.0388 C.3     1  UNL1        0.0001
     35 C         138.8984  144.4284  165.2455 C.3     1  UNL1        0.0018
     36 C         139.4316  144.9074  163.9278 C.3     1  UNL1        0.0252
@<TRIPOS>BOND
     1    20    21    1
     2    21    19    1
     3    19    18    1
     4    18     8    1
     5     8     9   ar
     6     9    10   ar
     7    10     7    1
     8     7     1    1
     9     1     2    1
    10     2     3    1
    11     3     4    1
    12     4    22    1
    13    22    23    1
    14    23    24    1
    15    24    25    1
    16    25    26    1
    17    26    28    1
    18    28    29    2
    19    28    30    2
    20    28    31    1
    21    31    32    1
    22    32    33    1
    23    33    34    1
    24    34    35    1
    25    35    36    1
    26     4     5    1
    27     5     6    1
    28    10    11   ar
    29    11    12   ar
    30    12    13   ar
    31    13    14   ar
    32    14    15   ar
    33    15    16   ar
    34    16    17   ar
    35    17     8   ar
    36     6     1    1
    37    16    11   ar
    38    36    31    1
    39    26    27    1
@<TRIPOS>MOLECULE
*****
 36 39 0 0 0
SMALL
GASTEIGER

@<TRIPOS>ATOM
      1 C         138.7438  140.0071  164.1893 C.3     1  UNL1        0.1688
      2 C         138.9435  139.2014  162.9399 C.3     1  UNL1        0.0609
      3 C         138.8333  139.8603  161.5969 C.3     1  UNL1        0.0758
      4 N         138.5234  141.3249  161.5033 N.3     1  UNL1       -0.2724
      5 C         138.3237  142.1307  162.7526 C.3     1  UNL1        0.0758
      6 C         138.4339  141.4717  164.0957 C.3     1  UNL1        0.0609
      7 O         138.8540  139.3481  165.5323 O.3     1  UNL1       -0.4776
      8 C         142.7434  138.9976  166.2389 C.ar    1  UNL1       -0.0191
      9 C         141.4298  139.0095  165.5148 C.ar    1  UNL1        0.0342
     10 C         140.1676  139.3363  166.2564 C.ar    1  UNL1        0.1555
     11 C         140.2189  139.6512  167.7221 C.ar    1  UNL1        0.1151
     12 N         138.9566  139.9780  168.4636 N.ar    1  UNL1       -0.2408
     13 C         139.0080  140.2929  169.9293 C.ar    1  UNL1        0.0989
     14 C         140.3216  140.2810  170.6534 C.ar    1  UNL1        0.0207
     15 C         141.5838  139.9542  169.9118 C.ar    1  UNL1        0.0032
     16 C         141.5325  139.6393  168.4462 C.ar    1  UNL1        0.0204
     17 C         142.7947  139.3125  167.7046 C.ar    1  UNL1       -0.0026
     18 C         144.0057  138.6708  165.4973 C.3     1  UNL1        0.0265
     19 C         144.2136  139.1901  164.1055 C.3     1  UNL1        0.0047
     20 C         144.9656  141.1258  162.5444 C.3     1  UNL1        0.0000
     21 C         144.9924  140.4529  163.8847 C.3     1  UNL1        0.0003
     22 C         138.4132  141.9839  160.1603 C.3     1  UNL1        0.0721
     23 C         139.3041  143.1410  159.8172 C.3     1  UNL1        0.0188
     24 C         140.7739  143.0677  160.1075 C.3     1  UNL1        0.0202
     25 C         141.6356  144.2820  159.9261 C.3     1  UNL1        0.0911
     26 N         141.9354  145.1707  161.0968 N.3     1  UNL1       -0.1834
     27 H         141.0968  145.7258  161.2675 H       1  UNL1        0.1484
     28 S         142.3319  144.5695  162.4126 S.O2    1  UNL1        0.0390
     29 O         140.9638  144.8571  162.9563 O.2     1  UNL1       -0.1576
     30 O         143.6999  144.2818  161.8689 O.2     1  UNL1       -0.1576
     31 C         142.7284  143.9682  163.7284 C.3     1  UNL1        0.1456
     32 C         141.7605  143.1031  164.4798 C.3     1  UNL1        0.0252
     33 C         142.1570  142.5019  165.7956 C.3     1  UNL1        0.0018
     34 C         143.5214  142.7658  166.3599 C.3     1  UNL1        0.0001
     35 C         144.4894  143.6309  165.6085 C.3     1  UNL1        0.0018
     36 C         144.0929  144.2321  164.2928 C.3     1  UNL1        0.0252
@<TRIPOS>BOND
     1    20    21    1
     2    21    19    1
     3    19    18    1
     4    18     8    1
     5     8     9   ar
     6     9    10   ar
     7    10     7    1
     8     7     1    1
     9     1     2    1
    10     2     3    1
    11     3     4    1
    12     4    22    1
    13    22    23    1
    14    23    24    1
    15    24    25    1
    16    25    26    1
    17    26    28    1
    18    28    29    2
    19    28    30    2
    20    28    31    1
    21    31    32    1
    22    32    33    1
    23    33    34    1
    24    34    35    1
    25    35    36    1
    26     4     5    1
    27     5     6    1
    28    10    11   ar
    29    11    12   ar
    30    12    13   ar
    31    13    14   ar
    32    14    15   ar
    33    15    16   ar
    34    16    17   ar
    35    17     8   ar
    36     6     1    1
    37    16    11   ar
    38    36    31    1
    39    26    27    1
@<TRIPOS>MOLECULE
*****
 36 39 0 0 0
SMALL
GASTEIGER

@<TRIPOS>ATOM
      1 C         139.2924  138.9379  164.5454 C.3     1  UNL1        0.1688
      2 C         138.4449  140.1412  164.2554 C.3     1  UNL1        0.0609
      3 C         137.7549  140.2706  162.9298 C.3     1  UNL1        0.0758
      4 N         137.9123  139.1969  161.8943 N.3     1  UNL1       -0.2724
      5 C         138.7598  137.9937  162.1843 C.3     1  UNL1        0.0758
      6 C         139.4499  137.8642  163.5099 C.3     1  UNL1        0.0609
      7 O         139.9824  138.8085  165.8710 O.3     1  UNL1       -0.4776
      8 C         142.8427  141.5537  166.0525 C.ar    1  UNL1       -0.0191
      9 C         141.9803  140.4368  165.5437 C.ar    1  UNL1        0.0342
     10 C         140.8448  139.9253  166.3798 C.ar    1  UNL1        0.1555
     11 C         140.5718  140.5307  167.7248 C.ar    1  UNL1        0.1151
     12 N         139.4363  140.0192  168.5609 N.ar    1  UNL1       -0.2408
     13 C         139.1633  140.6246  169.9059 C.ar    1  UNL1        0.0989
     14 C         140.0257  141.7414  170.4147 C.ar    1  UNL1        0.0207
     15 C         141.1612  142.2529  169.5786 C.ar    1  UNL1        0.0032
     16 C         141.4342  141.6475  168.2337 C.ar    1  UNL1        0.0204
     17 C         142.5697  142.1590  167.3975 C.ar    1  UNL1       -0.0026
     18 C         143.9782  142.0651  165.2163 C.3     1  UNL1        0.0265
     19 C         144.4277  143.4897  165.3528 C.3     1  UNL1        0.0047
     20 C         144.0595  144.3005  162.9121 C.3     1  UNL1        0.0000
     21 C         143.9333  144.5277  164.3894 C.3     1  UNL1        0.0003
     22 C         137.2223  139.3263  160.5688 C.3     1  UNL1        0.0721
     23 C         137.7876  140.2308  159.5141 C.3     1  UNL1        0.0188
     24 C         139.2683  140.2738  159.2779 C.3     1  UNL1        0.0202
     25 C         140.0015  141.5804  159.3498 C.3     1  UNL1        0.0911
     26 N         139.2790  142.8234  159.7778 N.3     1  UNL1       -0.1834
     27 H         138.3140  142.7265  159.4620 H       1  UNL1        0.1484
     28 S         139.2242  143.1968  161.2294 S.O2    1  UNL1        0.0390
     29 O         137.7262  143.2339  161.1634 O.2     1  UNL1       -0.1576
     30 O         140.7223  143.1597  161.2955 O.2     1  UNL1       -0.1576
     31 C         139.1695  143.5703  162.6812 C.3     1  UNL1        0.1456
     32 C         140.4141  143.5171  163.5168 C.3     1  UNL1        0.0252
     33 C         140.3594  143.8905  164.9685 C.3     1  UNL1        0.0018
     34 C         139.0601  144.3172  165.5846 C.3     1  UNL1        0.0001
     35 C         137.8155  144.3705  164.7491 C.3     1  UNL1        0.0018
     36 C         137.8702  143.9970  163.2974 C.3     1  UNL1        0.0252
@<TRIPOS>BOND
     1    20    21    1
     2    21    19    1
     3    19    18    1
     4    18     8    1
     5     8     9   ar
     6     9    10   ar
     7    10     7    1
     8     7     1    1
     9     1     2    1
    10     2     3    1
    11     3     4    1
    12     4    22    1
    13    22    23    1
    14    23    24    1
    15    24    25    1
    16    25    26    1
    17    26    28    1
    18    28    29    2
    19    28    30    2
    20    28    31    1
    21    31    32    1
    22    32    33    1
    23    33    34    1
    24    34    35    1
    25    35    36    1
    26     4     5    1
    27     5     6    1
    28    10    11   ar
    29    11    12   ar
    30    12    13   ar
    31    13    14   ar
    32    14    15   ar
    33    15    16   ar
    34    16    17   ar
    35    17     8   ar
    36     6     1    1
    37    16    11   ar
    38    36    31    1
    39    26    27    1
@<TRIPOS>MOLECULE
*****
 36 39 0 0 0
SMALL
GASTEIGER

@<TRIPOS>ATOM
      1 C         143.3717  139.2435  163.8357 C.3     1  UNL1        0.1688
      2 C         142.3393  138.2525  163.3861 C.3     1  UNL1        0.0609
      3 C         142.2103  137.9118  161.9310 C.3     1  UNL1        0.0758
      4 N         143.1138  138.5621  160.9255 N.3     1  UNL1       -0.2724
      5 C         144.1461  139.5531  161.3751 C.3     1  UNL1        0.0758
      6 C         144.2751  139.8938  162.8303 C.3     1  UNL1        0.0609
      7 O         143.5006  139.5842  165.2908 O.3     1  UNL1       -0.4776
      8 C         140.9581  142.5967  165.7494 C.ar    1  UNL1       -0.0191
      9 C         141.9257  141.6429  165.1138 C.ar    1  UNL1        0.0342
     10 C         142.5330  140.5380  165.9264 C.ar    1  UNL1        0.1555
     11 C         142.1728  140.3870  167.3747 C.ar    1  UNL1        0.1151
     12 N         142.7802  139.2822  168.1873 N.ar    1  UNL1       -0.2408
     13 C         142.4199  139.1312  169.6355 C.ar    1  UNL1        0.0989
     14 C         141.4523  140.0850  170.2711 C.ar    1  UNL1        0.0207
     15 C         140.8450  141.1898  169.4585 C.ar    1  UNL1        0.0032
     16 C         141.2052  141.3408  168.0103 C.ar    1  UNL1        0.0204
     17 C         140.5979  142.4457  167.1976 C.ar    1  UNL1       -0.0026
     18 C         140.3507  143.7016  164.9366 C.3     1  UNL1        0.0265
     19 C         139.0653  144.3371  165.3770 C.3     1  UNL1        0.0047
     20 C         137.7961  143.9674  163.1404 C.3     1  UNL1        0.0000
     21 C         137.7928  144.0453  164.6383 C.3     1  UNL1        0.0003
     22 C         142.9848  138.2214  159.4705 C.3     1  UNL1        0.0721
     23 C         141.6467  138.3013  158.7972 C.3     1  UNL1        0.0188
     24 C         140.7066  139.4224  159.1276 C.3     1  UNL1        0.0202
     25 C         139.2652  139.1301  159.4223 C.3     1  UNL1        0.0911
     26 N         138.5103  139.9857  160.3961 N.3     1  UNL1       -0.1834
     27 H         137.5348  139.9804  160.0980 H       1  UNL1        0.1484
     28 S         138.5185  139.6454  161.8569 S.O2    1  UNL1        0.0390
     29 O         139.4362  140.8020  162.1212 O.2     1  UNL1       -0.1576
     30 O         137.6008  138.4887  161.5926 O.2     1  UNL1       -0.1576
     31 C         138.5268  139.3050  163.3178 C.3     1  UNL1        0.1456
     32 C         138.8173  137.9011  163.7591 C.3     1  UNL1        0.0252
     33 C         138.8256  137.5607  165.2199 C.3     1  UNL1        0.0018
     34 C         138.5432  138.6241  166.2394 C.3     1  UNL1        0.0001
     35 C         138.2527  140.0279  165.7981 C.3     1  UNL1        0.0018
     36 C         138.2444  140.3684  164.3373 C.3     1  UNL1        0.0252
@<TRIPOS>BOND
     1    20    21    1
     2    21    19    1
     3    19    18    1
     4    18     8    1
     5     8     9   ar
     6     9    10   ar
     7    10     7    1
     8     7     1    1
     9     1     2    1
    10     2     3    1
    11     3     4    1
    12     4    22    1
    13    22    23    1
    14    23    24    1
    15    24    25    1
    16    25    26    1
    17    26    28    1
    18    28    29    2
    19    28    30    2
    20    28    31    1
    21    31    32    1
    22    32    33    1
    23    33    34    1
    24    34    35    1
    25    35    36    1
    26     4     5    1
    27     5     6    1
    28    10    11   ar
    29    11    12   ar
    30    12    13   ar
    31    13    14   ar
    32    14    15   ar
    33    15    16   ar
    34    16    17   ar
    35    17     8   ar
    36     6     1    1
    37    16    11   ar
    38    36    31    1
    39    26    27    1
@<TRIPOS>MOLECULE
*****
 36 39 0 0 0
SMALL
GASTEIGER

@<TRIPOS>ATOM
      1 C         143.3043  141.3046  165.7043 C.3     1  UNL1        0.1688
      2 C         143.2059  142.3291  166.7956 C.3     1  UNL1        0.0609
      3 C         142.9118  141.9002  168.2025 C.3     1  UNL1        0.0758
      4 N         142.7161  140.4469  168.5182 N.3     1  UNL1       -0.2724
      5 C         142.8145  139.4225  167.4270 C.3     1  UNL1        0.0758
      6 C         143.1086  139.8513  166.0200 C.3     1  UNL1        0.0609
      7 O         143.5984  141.7335  164.2973 O.3     1  UNL1       -0.4776
      8 C         140.4893  142.4333  161.9322 C.ar    1  UNL1       -0.0191
      9 C         141.5244  142.6127  163.0029 C.ar    1  UNL1        0.0342
     10 C         142.5633  141.5541  163.2267 C.ar    1  UNL1        0.1555
     11 C         142.5670  140.3160  162.3797 C.ar    1  UNL1        0.1151
     12 N         143.6059  139.2574  162.6035 N.ar    1  UNL1       -0.2408
     13 C         143.6096  138.0194  161.7566 C.ar    1  UNL1        0.0989
     14 C         142.5745  137.8400  160.6859 C.ar    1  UNL1        0.0207
     15 C         141.5356  138.8986  160.4622 C.ar    1  UNL1        0.0032
     16 C         141.5319  140.1366  161.3091 C.ar    1  UNL1        0.0204
     17 C         140.4930  141.1953  161.0853 C.ar    1  UNL1       -0.0026
     18 C         139.4505  143.4920  161.7085 C.3     1  UNL1        0.0265
     19 C         139.2512  144.5745  162.7275 C.3     1  UNL1        0.0047
     20 C         138.6549  144.8256  165.2437 C.3     1  UNL1        0.0000
     21 C         138.2915  144.3692  163.8619 C.3     1  UNL1        0.0003
     22 C         142.4220  140.0180  169.9252 C.3     1  UNL1        0.0721
     23 C         141.0444  139.5540  170.2954 C.3     1  UNL1        0.0188
     24 C         139.8465  140.3574  169.8836 C.3     1  UNL1        0.0202
     25 C         139.1701  140.0780  168.5743 C.3     1  UNL1        0.0911
     26 N         139.6648  140.7343  167.3194 N.3     1  UNL1       -0.1834
     27 H         140.6838  140.7101  167.3565 H       1  UNL1        0.1484
     28 S         139.2671  140.1878  165.9803 S.O2    1  UNL1        0.0390
     29 O         138.9574  138.8634  166.6128 O.2     1  UNL1       -0.1576
     30 O         139.5769  141.5122  165.3479 O.2     1  UNL1       -0.1576
     31 C         138.8695  139.6413  164.6411 C.3     1  UNL1        0.1456
     32 C         138.0098  140.4585  163.7229 C.3     1  UNL1        0.0252
     33 C         137.6122  139.9121  162.3838 C.3     1  UNL1        0.0018
     34 C         138.0742  138.5485  161.9629 C.3     1  UNL1        0.0001
     35 C         138.9339  137.7314  162.8812 C.3     1  UNL1        0.0018
     36 C         139.3316  138.2778  164.2203 C.3     1  UNL1        0.0252
@<TRIPOS>BOND
     1    20    21    1
     2    21    19    1
     3    19    18    1
     4    18     8    1
     5     8     9   ar
     6     9    10   ar
     7    10     7    1
     8     7     1    1
     9     1     2    1
    10     2     3    1
    11     3     4    1
    12     4    22    1
    13    22    23    1
    14    23    24    1
    15    24    25    1
    16    25    26    1
    17    26    28    1
    18    28    29    2
    19    28    30    2
    20    28    31    1
    21    31    32    1
    22    32    33    1
    23    33    34    1
    24    34    35    1
    25    35    36    1
    26     4     5    1
    27     5     6    1
    28    10    11   ar
    29    11    12   ar
    30    12    13   ar
    31    13    14   ar
    32    14    15   ar
    33    15    16   ar
    34    16    17   ar
    35    17     8   ar
    36     6     1    1
    37    16    11   ar
    38    36    31    1
    39    26    27    1
@<TRIPOS>MOLECULE
*****
 36 39 0 0 0
SMALL
GASTEIGER

@<TRIPOS>ATOM
      1 C         140.5338  143.8024  164.6474 C.3     1  UNL1        0.1688
      2 C         139.2494  144.3788  164.1296 C.3     1  UNL1        0.0609
      3 C         139.1424  144.8035  162.6950 C.3     1  UNL1        0.0758
      4 N         140.3198  144.6518  161.7781 N.3     1  UNL1       -0.2724
      5 C         141.6042  144.0754  162.2959 C.3     1  UNL1        0.0758
      6 C         141.7112  143.6507  163.7305 C.3     1  UNL1        0.0609
      7 O         140.6408  143.3777  166.0820 O.3     1  UNL1       -0.4776
      8 C         142.2944  139.7901  165.7009 C.ar    1  UNL1       -0.0191
      9 C         141.7808  141.1576  165.3599 C.ar    1  UNL1        0.0342
     10 C         141.1543  142.0102  166.4231 C.ar    1  UNL1        0.1555
     11 C         141.0414  141.4954  167.8275 C.ar    1  UNL1        0.1151
     12 N         140.4149  142.3480  168.8907 N.ar    1  UNL1       -0.2408
     13 C         140.3019  141.8331  170.2950 C.ar    1  UNL1        0.0989
     14 C         140.8155  140.4657  170.6361 C.ar    1  UNL1        0.0207
     15 C         141.4420  139.6131  169.5729 C.ar    1  UNL1        0.0032
     16 C         141.5549  140.1279  168.1686 C.ar    1  UNL1        0.0204
     17 C         142.1815  139.2753  167.1052 C.ar    1  UNL1       -0.0026
     18 C         142.9209  138.9375  164.6376 C.3     1  UNL1        0.0265
     19 C         143.8864  139.5435  163.6626 C.3     1  UNL1        0.0047
     20 C         145.6475  141.4535  163.6831 C.3     1  UNL1        0.0000
     21 C         145.1910  140.1024  164.1480 C.3     1  UNL1        0.0003
     22 C         140.2129  145.0765  160.3435 C.3     1  UNL1        0.0721
     23 C         140.3778  144.0655  159.2477 C.3     1  UNL1        0.0188
     24 C         139.2492  143.1380  158.9069 C.3     1  UNL1        0.0202
     25 C         138.9522  141.9622  159.7895 C.3     1  UNL1        0.0911
     26 N         138.2143  142.1606  161.0803 N.3     1  UNL1       -0.1834
     27 H         137.2203  142.1747  160.8521 H       1  UNL1        0.1484
     28 S         138.3872  141.1795  162.2016 S.O2    1  UNL1        0.0390
     29 O         137.0450  141.5670  162.7477 O.2     1  UNL1       -0.1576
     30 O         139.7294  140.7920  161.6556 O.2     1  UNL1       -0.1576
     31 C         138.5602  140.1983  163.3230 C.3     1  UNL1        0.1456
     32 C         138.1306  140.5642  164.7128 C.3     1  UNL1        0.0252
     33 C         138.3036  139.5831  165.8341 C.3     1  UNL1        0.0018
     34 C         138.9061  138.2360  165.5656 C.3     1  UNL1        0.0001
     35 C         139.3357  137.8700  164.1758 C.3     1  UNL1        0.0018
     36 C         139.1628  138.8511  163.0545 C.3     1  UNL1        0.0252
@<TRIPOS>BOND
     1    20    21    1
     2    21    19    1
     3    19    18    1
     4    18     8    1
     5     8     9   ar
     6     9    10   ar
     7    10     7    1
     8     7     1    1
     9     1     2    1
    10     2     3    1
    11     3     4    1
    12     4    22    1
    13    22    23    1
    14    23    24    1
    15    24    25    1
    16    25    26    1
    17    26    28    1
    18    28    29    2
    19    28    30    2
    20    28    31    1
    21    31    32    1
    22    32    33    1
    23    33    34    1
    24    34    35    1
    25    35    36    1
    26     4     5    1
    27     5     6    1
    28    10    11   ar
    29    11    12   ar
    30    12    13   ar
    31    13    14   ar
    32    14    15   ar
    33    15    16   ar
    34    16    17   ar
    35    17     8   ar
    36     6     1    1
    37    16    11   ar
    38    36    31    1
    39    26    27    1
@<TRIPOS>MOLECULE
*****
 36 39 0 0 0
SMALL
GASTEIGER

@<TRIPOS>ATOM
      1 C         139.2708  143.6635  162.5848 C.3     1  UNL1        0.1688
      2 C         139.6934  145.1013  162.5190 C.3     1  UNL1        0.0609
      3 C         140.0214  145.7269  161.1957 C.3     1  UNL1        0.0758
      4 N         139.9268  144.9147  159.9382 N.3     1  UNL1       -0.2724
      5 C         139.5042  143.4770  160.0039 C.3     1  UNL1        0.0758
      6 C         139.1762  142.8514  161.3272 C.3     1  UNL1        0.0609
      7 O         138.9428  143.0380  163.9081 O.3     1  UNL1       -0.4776
      8 C         142.0042  141.8078  166.1136 C.ar    1  UNL1       -0.0191
      9 C         141.0119  142.7126  165.4452 C.ar    1  UNL1        0.0342
     10 C         139.9351  142.1332  164.5765 C.ar    1  UNL1        0.1555
     11 C         139.8506  140.6490  164.3761 C.ar    1  UNL1        0.1151
     12 N         138.7738  140.0697  163.5073 N.ar    1  UNL1       -0.2408
     13 C         138.6892  138.5856  163.3070 C.ar    1  UNL1        0.0989
     14 C         139.6815  137.6808  163.9754 C.ar    1  UNL1        0.0207
     15 C         140.7583  138.2602  164.8441 C.ar    1  UNL1        0.0032
     16 C         140.8429  139.7443  165.0445 C.ar    1  UNL1        0.0204
     17 C         141.9197  140.3237  165.9133 C.ar    1  UNL1       -0.0026
     18 C         143.0811  142.3873  166.9824 C.3     1  UNL1        0.0265
     19 C         143.1671  141.9999  168.4290 C.3     1  UNL1        0.0047
     20 C         140.9340  143.0485  169.2437 C.3     1  UNL1        0.0000
     21 C         142.3918  142.7675  169.4583 C.3     1  UNL1        0.0003
     22 C         140.2547  145.5402  158.6149 C.3     1  UNL1        0.0721
     23 C         141.6847  145.6719  158.1814 C.3     1  UNL1        0.0188
     24 C         142.4420  144.4633  157.7170 C.3     1  UNL1        0.0202
     25 C         142.9379  143.4597  158.7154 C.3     1  UNL1        0.0911
     26 N         143.0047  143.8190  160.1703 N.3     1  UNL1       -0.1834
     27 H         142.0559  144.0584  160.4583 H       1  UNL1        0.1484
     28 S         143.5211  142.8230  161.1659 S.O2    1  UNL1        0.0390
     29 O         142.8148  141.7224  160.4312 O.2     1  UNL1       -0.1576
     30 O         144.2275  143.9236  161.9005 O.2     1  UNL1       -0.1576
     31 C         144.0376  141.8270  162.1615 C.3     1  UNL1        0.1456
     32 C         145.0620  142.2423  163.1755 C.3     1  UNL1        0.0252
     33 C         145.5785  141.2464  164.1711 C.3     1  UNL1        0.0018
     34 C         145.0706  139.8352  164.1528 C.3     1  UNL1        0.0001
     35 C         144.0462  139.4198  163.1388 C.3     1  UNL1        0.0018
     36 C         143.5297  140.4157  162.1432 C.3     1  UNL1        0.0252
@<TRIPOS>BOND
     1    20    21    1
     2    21    19    1
     3    19    18    1
     4    18     8    1
     5     8     9   ar
     6     9    10   ar
     7    10     7    1
     8     7     1    1
     9     1     2    1
    10     2     3    1
    11     3     4    1
    12     4    22    1
    13    22    23    1
    14    23    24    1
    15    24    25    1
    16    25    26    1
    17    26    28    1
    18    28    29    2
    19    28    30    2
    20    28    31    1
    21    31    32    1
    22    32    33    1
    23    33    34    1
    24    34    35    1
    25    35    36    1
    26     4     5    1
    27     5     6    1
    28    10    11   ar
    29    11    12   ar
    30    12    13   ar
    31    13    14   ar
    32    14    15   ar
    33    15    16   ar
    34    16    17   ar
    35    17     8   ar
    36     6     1    1
    37    16    11   ar
    38    36    31    1
    39    26    27    1
@<TRIPOS>MOLECULE
*****
 36 39 0 0 0
SMALL
GASTEIGER

@<TRIPOS>ATOM
      1 C         140.6322  138.8048  164.6101 C.3     1  UNL1        0.1688
      2 C         139.5048  139.7936  164.6496 C.3     1  UNL1        0.0609
      3 C         138.4590  139.7820  163.5744 C.3     1  UNL1        0.0758
      4 N         138.5405  138.7817  162.4596 N.3     1  UNL1       -0.2724
      5 C         139.6678  137.7930  162.4200 C.3     1  UNL1        0.0758
      6 C         140.7137  137.8045  163.4953 C.3     1  UNL1        0.0609
      7 O         141.6780  138.8164  165.6853 O.3     1  UNL1       -0.4776
      8 C         142.6708  142.0591  167.7467 C.ar    1  UNL1       -0.0191
      9 C         142.0018  140.7719  167.3648 C.ar    1  UNL1        0.0342
     10 C         142.3469  140.1035  166.0671 C.ar    1  UNL1        0.1555
     11 C         143.3609  140.7223  165.1511 C.ar    1  UNL1        0.1151
     12 N         143.7060  140.0539  163.8534 N.ar    1  UNL1       -0.2408
     13 C         144.7200  140.6726  162.9375 C.ar    1  UNL1        0.0989
     14 C         145.3889  141.9598  163.3193 C.ar    1  UNL1        0.0207
     15 C         145.0439  142.6282  164.6171 C.ar    1  UNL1        0.0032
     16 C         144.0299  142.0094  165.5330 C.ar    1  UNL1        0.0204
     17 C         143.6848  142.6778  166.8308 C.ar    1  UNL1       -0.0026
     18 C         142.3256  142.7275  169.0445 C.3     1  UNL1        0.0265
     19 C         140.8892  142.9491  169.4152 C.3     1  UNL1        0.0047
     20 C         139.2367  141.0075  169.9148 C.3     1  UNL1        0.0000
     21 C         140.2182  142.0344  170.3966 C.3     1  UNL1        0.0003
     22 C         137.4947  138.7702  161.3844 C.3     1  UNL1        0.0721
     23 C         137.5625  139.7624  160.2614 C.3     1  UNL1        0.0188
     24 C         138.8670  140.4181  159.9177 C.3     1  UNL1        0.0202
     25 C         138.8787  141.7197  159.1722 C.3     1  UNL1        0.0911
     26 N         138.4597  142.9835  159.8630 N.3     1  UNL1       -0.1834
     27 H         137.4423  143.0274  159.8051 H       1  UNL1        0.1484
     28 S         138.8215  143.2074  161.3014 S.O2    1  UNL1        0.0390
     29 O         137.4016  142.9355  161.7009 O.2     1  UNL1       -0.1576
     30 O         140.2415  143.4794  160.9018 O.2     1  UNL1       -0.1576
     31 C         139.1834  143.4314  162.7398 C.3     1  UNL1        0.1456
     32 C         140.5371  143.0274  163.2442 C.3     1  UNL1        0.0252
     33 C         140.8990  143.2513  164.6826 C.3     1  UNL1        0.0018
     34 C         139.9072  143.8792  165.6165 C.3     1  UNL1        0.0001
     35 C         138.5536  144.2831  165.1120 C.3     1  UNL1        0.0018
     36 C         138.1917  144.0592  163.6737 C.3     1  UNL1        0.0252
@<TRIPOS>BOND
     1    20    21    1
     2    21    19    1
     3    19    18    1
     4    18     8    1
     5     8     9   ar
     6     9    10   ar
     7    10     7    1
     8     7     1    1
     9     1     2    1
    10     2     3    1
    11     3     4    1
    12     4    22    1
    13    22    23    1
    14    23    24    1
    15    24    25    1
    16    25    26    1
    17    26    28    1
    18    28    29    2
    19    28    30    2
    20    28    31    1
    21    31    32    1
    22    32    33    1
    23    33    34    1
    24    34    35    1
    25    35    36    1
    26     4     5    1
    27     5     6    1
    28    10    11   ar
    29    11    12   ar
    30    12    13   ar
    31    13    14   ar
    32    14    15   ar
    33    15    16   ar
    34    16    17   ar
    35    17     8   ar
    36     6     1    1
    37    16    11   ar
    38    36    31    1
    39    26    27    1
@<TRIPOS>MOLECULE
*****
 36 39 0 0 0
SMALL
GASTEIGER

@<TRIPOS>ATOM
      1 C         143.6862  141.0226  163.6116 C.3     1  UNL1        0.1688
      2 C         143.9521  140.0451  162.5052 C.3     1  UNL1        0.0609
      3 C         144.0811  140.5293  161.0915 C.3     1  UNL1        0.0758
      4 N         143.9443  141.9911  160.7839 N.3     1  UNL1       -0.2724
      5 C         143.6785  142.9686  161.8901 C.3     1  UNL1        0.0758
      6 C         143.5494  142.4843  163.3040 C.3     1  UNL1        0.0609
      7 O         143.5572  140.5383  165.0253 O.3     1  UNL1       -0.4776
      8 C         140.7197  141.9488  167.4147 C.ar    1  UNL1       -0.0191
      9 C         142.0277  141.8153  166.6926 C.ar    1  UNL1        0.0342
     10 C         142.2492  140.6719  165.7474 C.ar    1  UNL1        0.1555
     11 C         141.1628  139.6619  165.5243 C.ar    1  UNL1        0.1151
     12 N         141.3844  138.5185  164.5791 N.ar    1  UNL1       -0.2408
     13 C         140.2980  137.5086  164.3560 C.ar    1  UNL1        0.0989
     14 C         138.9901  137.6421  165.0781 C.ar    1  UNL1        0.0207
     15 C         138.7685  138.7855  166.0233 C.ar    1  UNL1        0.0032
     16 C         139.8549  139.7954  166.2464 C.ar    1  UNL1        0.0204
     17 C         139.6333  140.9389  167.1916 C.ar    1  UNL1       -0.0026
     18 C         140.4982  143.0923  168.3600 C.3     1  UNL1        0.0265
     19 C         140.3047  142.8285  169.8239 C.3     1  UNL1        0.0047
     20 C         140.5104  140.4426  170.8313 C.3     1  UNL1        0.0000
     21 C         141.1215  141.7743  170.5104 C.3     1  UNL1        0.0003
     22 C         144.0733  142.4753  159.3701 C.3     1  UNL1        0.0721
     23 C         142.8509  142.8837  158.6027 C.3     1  UNL1        0.0188
     24 C         142.5376  144.3378  158.4095 C.3     1  UNL1        0.0202
     25 C         141.3150  144.9322  159.0434 C.3     1  UNL1        0.0911
     26 N         141.3845  145.4814  160.4376 N.3     1  UNL1       -0.1834
     27 H         141.1810  146.4787  160.3717 H       1  UNL1        0.1484
     28 S         140.4914  144.9270  161.5075 S.O2    1  UNL1        0.0390
     29 O         139.5805  144.3657  160.4562 O.2     1  UNL1       -0.1576
     30 O         141.4023  145.4882  162.5587 O.2     1  UNL1       -0.1576
     31 C         139.5982  144.3725  162.5775 C.3     1  UNL1        0.1456
     32 C         138.5137  143.4000  162.2197 C.3     1  UNL1        0.0252
     33 C         137.6205  142.8455  163.2896 C.3     1  UNL1        0.0018
     34 C         137.8118  143.2636  164.7173 C.3     1  UNL1        0.0001
     35 C         138.8963  144.2361  165.0752 C.3     1  UNL1        0.0018
     36 C         139.7895  144.7906  164.0053 C.3     1  UNL1        0.0252
@<TRIPOS>BOND
     1    20    21    1
     2    21    19    1
     3    19    18    1
     4    18     8    1
     5     8     9   ar
     6     9    10   ar
     7    10     7    1
     8     7     1    1
     9     1     2    1
    10     2     3    1
    11     3     4    1
    12     4    22    1
    13    22    23    1
    14    23    24    1
    15    24    25    1
    16    25    26    1
    17    26    28    1
    18    28    29    2
    19    28    30    2
    20    28    31    1
    21    31    32    1
    22    32    33    1
    23    33    34    1
    24    34    35    1
    25    35    36    1
    26     4     5    1
    27     5     6    1
    28    10    11   ar
    29    11    12   ar
    30    12    13   ar
    31    13    14   ar
    32    14    15   ar
    33    15    16   ar
    34    16    17   ar
    35    17     8   ar
    36     6     1    1
    37    16    11   ar
    38    36    31    1
    39    26    27    1
