@<TRIPOS>MOLECULE
*****
 36 40 0 0 0
SMALL
GASTEIGER

@<TRIPOS>ATOM
      1 N         138.2264  142.8654  160.1520 N.pl3   1  UNL1       -0.2464
      2 C         139.0233  142.6440  161.4034 C.2     1  UNL1        0.3157
      3 N         139.0917  141.3693  162.1912 N.2     1  UNL1       -0.0614
      4 C         140.0025  141.5960  163.3613 C.3     1  UNL1        0.2309
      5 C         140.4969  143.0107  163.2967 C.ar    1  UNL1        0.0390
      6 C         141.4200  143.7928  164.1834 C.ar    1  UNL1        0.0008
      7 C         141.7379  145.2225  163.8600 C.ar    1  UNL1        0.0021
      8 C         141.1327  145.8702  162.6499 C.ar    1  UNL1        0.0299
      9 C         140.2097  145.0882  161.7632 C.ar    1  UNL1        0.1470
     10 F         139.6045  145.7359  160.5532 F       1  UNL1       -0.2039
     11 C         139.8918  143.6584  162.0866 C.ar    1  UNL1        0.1094
     12 H         137.6838  142.1339  159.7781 H       1  UNL1        0.2884
     13 H         138.2459  143.7421  159.7047 H       1  UNL1        0.2884
     14 C         140.8467  141.5237  164.5990 C.ar    1  UNL1        0.0298
     15 C         142.2805  141.0929  164.5048 C.ar    1  UNL1        0.0027
     16 C         143.1248  141.0206  165.7426 C.ar    1  UNL1        0.0295
     17 C         142.5353  141.3791  167.0745 C.ar    1  UNL1        0.1402
     18 F         143.3796  141.3069  168.3122 F       1  UNL1       -0.2042
     19 C         141.1016  141.8099  167.1687 C.ar    1  UNL1        0.0303
     20 C         140.2573  141.8822  165.9310 C.ar    1  UNL1        0.0027
     21 C         140.5121  142.1684  168.5006 C.ar    1  UNL1        0.0405
     22 C         139.8657  141.1097  169.3441 C.ar    1  UNL1        0.1022
     23 N         139.2761  141.4681  170.6759 N.ar    1  UNL1       -0.2224
     24 C         139.3330  142.8853  171.1644 C.ar    1  UNL1        0.1989
     25 N         139.9794  143.9439  170.3209 N.ar    1  UNL1       -0.2224
     26 C         140.5689  143.5855  168.9890 C.ar    1  UNL1        0.1022
     27 C         139.6845  140.1661  163.6847 C.ar    1  UNL1        0.0327
     28 C         140.1582  139.0690  162.7781 C.ar    1  UNL1        0.0211
     29 C         139.8402  137.6392  163.1015 C.ar    1  UNL1        0.0986
     30 N         139.0486  137.3066  164.3314 N.ar    1  UNL1       -0.2399
     31 C         138.5749  138.4038  165.2380 C.ar    1  UNL1        0.1525
     32 C         138.8929  139.8335  164.9146 C.ar    1  UNL1        0.0235
     33 C         137.7833  138.0711  166.4679 C.3     1  UNL1        0.4348
     34 F         136.9917  137.7385  167.6978 F       1  UNL1       -0.1644
     35 F         137.8470  136.6146  166.1150 F       1  UNL1       -0.1644
     36 F         137.7196  139.5276  166.8208 F       1  UNL1       -0.1644
@<TRIPOS>BOND
     1     1     2    1
     2     2     3    2
     3     3     4    1
     4     4    27    1
     5    27    28   ar
     6    28    29   ar
     7    29    30   ar
     8    30    31   ar
     9    31    33    1
    10    33    34    1
    11    33    35    1
    12    33    36    1
    13    31    32   ar
    14     4    14    1
    15    14    15   ar
    16    15    16   ar
    17    16    17   ar
    18    17    18    1
    19    17    19   ar
    20    19    21    1
    21    21    22   ar
    22    22    23   ar
    23    23    24   ar
    24    24    25   ar
    25    25    26   ar
    26    19    20   ar
    27     4     5    1
    28     5     6   ar
    29     6     7   ar
    30     7     8   ar
    31     8     9   ar
    32     9    10    1
    33     9    11   ar
    34    11     2    1
    35    32    27   ar
    36    20    14   ar
    37    11     5   ar
    38    26    21   ar
    39     1    12    1
    40     1    13    1
@<TRIPOS>MOLECULE
*****
 36 40 0 0 0
SMALL
GASTEIGER

@<TRIPOS>ATOM
      1 N         140.4007  139.8439  160.1599 N.pl3   1  UNL1       -0.2464
      2 C         140.7760  139.7058  161.6056 C.2     1  UNL1        0.3157
      3 N         141.9474  140.3576  162.2786 N.2     1  UNL1       -0.0614
      4 C         141.9411  139.9463  163.7211 C.3     1  UNL1        0.2309
      5 C         140.7657  139.0404  163.9396 C.ar    1  UNL1        0.0390
      6 C         140.2581  138.3316  165.1602 C.ar    1  UNL1        0.0008
      7 C         139.0304  137.4741  165.0734 C.ar    1  UNL1        0.0021
      8 C         138.3104  137.3255  163.7659 C.ar    1  UNL1        0.0299
      9 C         138.8180  138.0343  162.5453 C.ar    1  UNL1        0.1470
     10 F         138.0979  137.8857  161.2379 F       1  UNL1       -0.2039
     11 C         140.0456  138.8917  162.6322 C.ar    1  UNL1        0.1094
     12 H         140.9457  140.4041  159.5612 H       1  UNL1        0.2884
     13 H         139.6095  139.3742  159.8097 H       1  UNL1        0.2884
     14 C         142.1914  139.7143  165.1817 C.ar    1  UNL1        0.0298
     15 C         143.1060  138.6089  165.6196 C.ar    1  UNL1        0.0027
     16 C         143.3563  138.3769  167.0803 C.ar    1  UNL1        0.0295
     17 C         142.6920  139.2502  168.1030 C.ar    1  UNL1        0.1402
     18 F         142.9423  139.0182  169.5637 F       1  UNL1       -0.2042
     19 C         141.7775  140.3556  167.6652 C.ar    1  UNL1        0.0303
     20 C         141.5271  140.5876  166.2045 C.ar    1  UNL1        0.0027
     21 C         141.1131  141.2290  168.6879 C.ar    1  UNL1        0.0405
     22 C         141.7151  142.5555  169.0459 C.ar    1  UNL1        0.1022
     23 N         141.0509  143.4289  170.0686 N.ar    1  UNL1       -0.2224
     24 C         139.7847  142.9758  170.7332 C.ar    1  UNL1        0.1989
     25 N         139.1828  141.6494  170.3751 N.ar    1  UNL1       -0.2224
     26 C         139.8471  140.7759  169.3525 C.ar    1  UNL1        0.1022
     27 C         143.1688  140.8038  163.8079 C.ar    1  UNL1        0.0327
     28 C         144.5197  140.2086  163.5419 C.ar    1  UNL1        0.0211
     29 C         145.7473  141.0661  163.6287 C.ar    1  UNL1        0.0986
     30 N         145.6241  142.5188  163.9815 N.ar    1  UNL1       -0.2399
     31 C         144.2732  143.1140  164.2475 C.ar    1  UNL1        0.1525
     32 C         143.0456  142.2565  164.1607 C.ar    1  UNL1        0.0235
     33 C         144.1500  144.5667  164.6003 C.3     1  UNL1        0.4348
     34 F         144.0268  146.0194  164.9531 F       1  UNL1       -0.1644
     35 F         144.9717  144.3368  165.8339 F       1  UNL1       -0.1644
     36 F         143.3283  144.7966  163.3666 F       1  UNL1       -0.1644
@<TRIPOS>BOND
     1     1     2    1
     2     2     3    2
     3     3     4    1
     4     4    27    1
     5    27    28   ar
     6    28    29   ar
     7    29    30   ar
     8    30    31   ar
     9    31    33    1
    10    33    34    1
    11    33    35    1
    12    33    36    1
    13    31    32   ar
    14     4    14    1
    15    14    15   ar
    16    15    16   ar
    17    16    17   ar
    18    17    18    1
    19    17    19   ar
    20    19    21    1
    21    21    22   ar
    22    22    23   ar
    23    23    24   ar
    24    24    25   ar
    25    25    26   ar
    26    19    20   ar
    27     4     5    1
    28     5     6   ar
    29     6     7   ar
    30     7     8   ar
    31     8     9   ar
    32     9    10    1
    33     9    11   ar
    34    11     2    1
    35    32    27   ar
    36    20    14   ar
    37    11     5   ar
    38    26    21   ar
    39     1    12    1
    40     1    13    1
@<TRIPOS>MOLECULE
*****
 36 40 0 0 0
SMALL
GASTEIGER

@<TRIPOS>ATOM
      1 N         136.6573  137.6990  168.1086 N.pl3   1  UNL1       -0.2464
      2 C         137.7845  138.5116  167.5436 C.2     1  UNL1        0.3157
      3 N         138.3501  138.3921  166.1595 N.2     1  UNL1       -0.0614
      4 C         139.4591  139.3930  166.0240 C.3     1  UNL1        0.2309
      5 C         139.5788  140.1311  167.3244 C.ar    1  UNL1        0.0390
      6 C         140.4965  141.2289  167.7746 C.ar    1  UNL1        0.0008
      7 C         140.3792  141.7819  169.1639 C.ar    1  UNL1        0.0021
      8 C         139.3442  141.2371  170.1031 C.ar    1  UNL1        0.0299
      9 C         138.4265  140.1394  169.6529 C.ar    1  UNL1        0.1470
     10 F         137.3915  139.5946  170.5921 F       1  UNL1       -0.2039
     11 C         138.5438  139.5864  168.2636 C.ar    1  UNL1        0.1094
     12 H         136.2194  137.0128  167.5550 H       1  UNL1        0.2884
     13 H         136.3555  137.8519  169.0332 H       1  UNL1        0.2884
     14 C         140.5925  140.2783  165.5981 C.ar    1  UNL1        0.0298
     15 C         141.9758  140.0307  166.1229 C.ar    1  UNL1        0.0027
     16 C         143.1093  140.9160  165.6969 C.ar    1  UNL1        0.0295
     17 C         142.8595  142.0490  164.7461 C.ar    1  UNL1        0.1402
     18 F         143.9930  142.9343  164.3202 F       1  UNL1       -0.2042
     19 C         141.4764  142.2966  164.2213 C.ar    1  UNL1        0.0303
     20 C         140.3428  141.4113  164.6473 C.ar    1  UNL1        0.0027
     21 C         141.2266  143.4296  163.2705 C.ar    1  UNL1        0.0405
     22 C         140.1495  144.4316  163.5643 C.ar    1  UNL1        0.1022
     23 N         139.8997  145.5645  162.6136 N.ar    1  UNL1       -0.2224
     24 C         140.7268  145.6955  161.3691 C.ar    1  UNL1        0.1989
     25 N         141.8037  144.6936  161.0753 N.ar    1  UNL1       -0.2224
     26 C         142.0536  143.5606  162.0261 C.ar    1  UNL1        0.1022
     27 C         139.5763  138.8400  164.6346 C.ar    1  UNL1        0.0327
     28 C         140.6475  137.8403  164.3132 C.ar    1  UNL1        0.0211
     29 C         140.7647  137.2873  162.9238 C.ar    1  UNL1        0.0986
     30 N         139.8108  137.7340  161.8559 N.ar    1  UNL1       -0.2399
     31 C         138.7396  138.7336  162.1773 C.ar    1  UNL1        0.1525
     32 C         138.6224  139.2866  163.5666 C.ar    1  UNL1        0.0235
     33 C         137.7857  139.1802  161.1093 C.3     1  UNL1        0.4348
     34 F         136.8318  139.6269  160.0413 F       1  UNL1       -0.1644
     35 F         138.6925  140.3287  160.7797 F       1  UNL1       -0.1644
     36 F         136.8789  138.0317  161.4389 F       1  UNL1       -0.1644
@<TRIPOS>BOND
     1     1     2    1
     2     2     3    2
     3     3     4    1
     4     4    27    1
     5    27    28   ar
     6    28    29   ar
     7    29    30   ar
     8    30    31   ar
     9    31    33    1
    10    33    34    1
    11    33    35    1
    12    33    36    1
    13    31    32   ar
    14     4    14    1
    15    14    15   ar
    16    15    16   ar
    17    16    17   ar
    18    17    18    1
    19    17    19   ar
    20    19    21    1
    21    21    22   ar
    22    22    23   ar
    23    23    24   ar
    24    24    25   ar
    25    25    26   ar
    26    19    20   ar
    27     4     5    1
    28     5     6   ar
    29     6     7   ar
    30     7     8   ar
    31     8     9   ar
    32     9    10    1
    33     9    11   ar
    34    11     2    1
    35    32    27   ar
    36    20    14   ar
    37    11     5   ar
    38    26    21   ar
    39     1    12    1
    40     1    13    1
@<TRIPOS>MOLECULE
*****
 36 40 0 0 0
SMALL
GASTEIGER

@<TRIPOS>ATOM
      1 N         137.8732  139.8074  170.2611 N.pl3   1  UNL1       -0.2464
      2 C         139.0219  139.8865  169.2997 C.2     1  UNL1        0.3157
      3 N         138.9540  139.6361  167.8224 N.2     1  UNL1       -0.0614
      4 C         140.3304  139.8248  167.2566 C.3     1  UNL1        0.2309
      5 C         141.2488  140.1919  168.3843 C.ar    1  UNL1        0.0390
      6 C         142.7170  140.4964  168.4245 C.ar    1  UNL1        0.0008
      7 C         143.3765  140.8390  169.7274 C.ar    1  UNL1        0.0021
      8 C         142.5678  140.8772  170.9901 C.ar    1  UNL1        0.0299
      9 C         141.0996  140.5727  170.9500 C.ar    1  UNL1        0.1470
     10 F         140.2909  140.6109  172.2127 F       1  UNL1       -0.2039
     11 C         140.4401  140.2301  169.6471 C.ar    1  UNL1        0.1094
     12 H         136.9741  139.5727  169.9356 H       1  UNL1        0.2884
     13 H         138.0182  139.9901  171.2176 H       1  UNL1        0.2884
     14 C         141.5688  139.9419  166.4184 C.ar    1  UNL1        0.0298
     15 C         142.4957  138.7704  166.2820 C.ar    1  UNL1        0.0027
     16 C         143.7341  138.8874  165.4439 C.ar    1  UNL1        0.0295
     17 C         144.0457  140.1760  164.7421 C.ar    1  UNL1        0.1402
     18 F         145.2842  140.2931  163.9039 F       1  UNL1       -0.2042
     19 C         143.1189  141.3475  164.8785 C.ar    1  UNL1        0.0303
     20 C         141.8804  141.2305  165.7167 C.ar    1  UNL1        0.0027
     21 C         143.4305  142.6361  164.1767 C.ar    1  UNL1        0.0405
     22 C         143.4476  142.6886  162.6777 C.ar    1  UNL1        0.1022
     23 N         143.7591  143.9771  161.9759 N.ar    1  UNL1       -0.2224
     24 C         144.0535  145.2132  162.7731 C.ar    1  UNL1        0.1989
     25 N         144.0363  145.1607  164.2721 N.ar    1  UNL1       -0.2224
     26 C         143.7248  143.8721  164.9739 C.ar    1  UNL1        0.1022
     27 C         139.6708  139.4821  165.9536 C.ar    1  UNL1        0.0327
     28 C         139.5818  138.0516  165.5115 C.ar    1  UNL1        0.0211
     29 C         138.9222  137.7090  164.2086 C.ar    1  UNL1        0.0986
     30 N         138.3517  138.7970  163.3479 N.ar    1  UNL1       -0.2399
     31 C         138.4408  140.2275  163.7900 C.ar    1  UNL1        0.1525
     32 C         139.1003  140.5701  165.0929 C.ar    1  UNL1        0.0235
     33 C         137.8703  141.3155  162.9293 C.3     1  UNL1        0.4348
     34 F         137.2998  142.4034  162.0685 F       1  UNL1       -0.1644
     35 F         138.3397  142.3426  163.9164 F       1  UNL1       -0.1644
     36 F         137.4008  140.2883  161.9421 F       1  UNL1       -0.1644
@<TRIPOS>BOND
     1     1     2    1
     2     2     3    2
     3     3     4    1
     4     4    27    1
     5    27    28   ar
     6    28    29   ar
     7    29    30   ar
     8    30    31   ar
     9    31    33    1
    10    33    34    1
    11    33    35    1
    12    33    36    1
    13    31    32   ar
    14     4    14    1
    15    14    15   ar
    16    15    16   ar
    17    16    17   ar
    18    17    18    1
    19    17    19   ar
    20    19    21    1
    21    21    22   ar
    22    22    23   ar
    23    23    24   ar
    24    24    25   ar
    25    25    26   ar
    26    19    20   ar
    27     4     5    1
    28     5     6   ar
    29     6     7   ar
    30     7     8   ar
    31     8     9   ar
    32     9    10    1
    33     9    11   ar
    34    11     2    1
    35    32    27   ar
    36    20    14   ar
    37    11     5   ar
    38    26    21   ar
    39     1    12    1
    40     1    13    1
@<TRIPOS>MOLECULE
*****
 36 40 0 0 0
SMALL
GASTEIGER

@<TRIPOS>ATOM
      1 N         141.9789  144.9540  161.0428 N.pl3   1  UNL1       -0.2464
      2 C         141.3746  143.8732  161.8894 C.2     1  UNL1        0.3157
      3 N         142.0002  142.5470  162.2049 N.2     1  UNL1       -0.0614
      4 C         141.0508  141.7831  163.0797 C.3     1  UNL1        0.2309
      5 C         139.8385  142.6372  163.3047 C.ar    1  UNL1        0.0390
      6 C         138.5782  142.4056  164.0845 C.ar    1  UNL1        0.0008
      7 C         137.5180  143.4658  164.1286 C.ar    1  UNL1        0.0021
      8 C         137.7182  144.7576  163.3930 C.ar    1  UNL1        0.0299
      9 C         138.9784  144.9892  162.6133 C.ar    1  UNL1        0.1470
     10 F         139.1785  146.2811  161.8777 F       1  UNL1       -0.2039
     11 C         140.0386  143.9290  162.5691 C.ar    1  UNL1        0.1094
     12 H         142.8663  144.8232  160.6371 H       1  UNL1        0.2884
     13 H         141.4881  145.7942  160.8930 H       1  UNL1        0.2884
     14 C         140.3231  140.7975  163.9451 C.ar    1  UNL1        0.0298
     15 C         139.4426  139.7566  163.3194 C.ar    1  UNL1        0.0027
     16 C         138.7148  138.7711  164.1849 C.ar    1  UNL1        0.0295
     17 C         138.8676  138.8263  165.6761 C.ar    1  UNL1        0.1402
     18 F         138.1399  137.8407  166.5416 F       1  UNL1       -0.2042
     19 C         139.7481  139.8671  166.3018 C.ar    1  UNL1        0.0303
     20 C         140.4758  140.8527  165.4363 C.ar    1  UNL1        0.0027
     21 C         139.9009  139.9224  167.7930 C.ar    1  UNL1        0.0405
     22 C         141.2696  139.9572  168.4058 C.ar    1  UNL1        0.1022
     23 N         141.4225  140.0125  169.8969 N.ar    1  UNL1       -0.2224
     24 C         140.2067  140.0330  170.7753 C.ar    1  UNL1        0.1989
     25 N         138.8380  139.9982  170.1624 N.ar    1  UNL1       -0.2224
     26 C         138.6851  139.9429  168.6713 C.ar    1  UNL1        0.1022
     27 C         142.1110  140.7228  163.0355 C.ar    1  UNL1        0.0327
     28 C         142.6763  140.2819  161.7180 C.ar    1  UNL1        0.0211
     29 C         143.7365  139.2217  161.6738 C.ar    1  UNL1        0.0986
     30 N         144.2314  138.6025  162.9473 N.ar    1  UNL1       -0.2399
     31 C         143.6661  139.0434  164.2648 C.ar    1  UNL1        0.1525
     32 C         142.6059  140.1036  164.3089 C.ar    1  UNL1        0.0235
     33 C         144.1610  138.4242  165.5383 C.3     1  UNL1        0.4348
     34 F         144.6559  137.8049  166.8117 F       1  UNL1       -0.1644
     35 F         142.7553  138.0472  165.9012 F       1  UNL1       -0.1644
     36 F         145.5667  138.8012  165.1753 F       1  UNL1       -0.1644
@<TRIPOS>BOND
     1     1     2    1
     2     2     3    2
     3     3     4    1
     4     4    27    1
     5    27    28   ar
     6    28    29   ar
     7    29    30   ar
     8    30    31   ar
     9    31    33    1
    10    33    34    1
    11    33    35    1
    12    33    36    1
    13    31    32   ar
    14     4    14    1
    15    14    15   ar
    16    15    16   ar
    17    16    17   ar
    18    17    18    1
    19    17    19   ar
    20    19    21    1
    21    21    22   ar
    22    22    23   ar
    23    23    24   ar
    24    24    25   ar
    25    25    26   ar
    26    19    20   ar
    27     4     5    1
    28     5     6   ar
    29     6     7   ar
    30     7     8   ar
    31     8     9   ar
    32     9    10    1
    33     9    11   ar
    34    11     2    1
    35    32    27   ar
    36    20    14   ar
    37    11     5   ar
    38    26    21   ar
    39     1    12    1
    40     1    13    1
@<TRIPOS>MOLECULE
*****
 36 40 0 0 0
SMALL
GASTEIGER

@<TRIPOS>ATOM
      1 N         142.0735  145.0493  161.1484 N.pl3   1  UNL1       -0.2464
      2 C         141.4680  143.9674  161.9928 C.2     1  UNL1        0.3157
      3 N         142.0976  142.6450  162.3162 N.2     1  UNL1       -0.0614
      4 C         141.1452  141.8784  163.1852 C.3     1  UNL1        0.2309
      5 C         139.9270  142.7270  163.3990 C.ar    1  UNL1        0.0390
      6 C         138.6619  142.4909  164.1694 C.ar    1  UNL1        0.0008
      7 C         137.5962  143.5460  164.2029 C.ar    1  UNL1        0.0021
      8 C         137.7957  144.8371  163.4659 C.ar    1  UNL1        0.0299
      9 C         139.0608  145.0732  162.6954 C.ar    1  UNL1        0.1470
     10 F         139.2603  146.3644  161.9584 F       1  UNL1       -0.2039
     11 C         140.1265  144.0182  162.6620 C.ar    1  UNL1        0.1094
     12 H         142.9647  144.9219  160.7499 H       1  UNL1        0.2884
     13 H         141.5798  145.8867  160.9928 H       1  UNL1        0.2884
     14 C         140.4157  140.8912  164.0473 C.ar    1  UNL1        0.0298
     15 C         139.5194  139.8653  163.4191 C.ar    1  UNL1        0.0027
     16 C         138.7898  138.8781  164.2812 C.ar    1  UNL1        0.0295
     17 C         138.9565  138.9167  165.7714 C.ar    1  UNL1        0.1402
     18 F         138.2269  137.9295  166.6335 F       1  UNL1       -0.2042
     19 C         139.8527  139.9425  166.3996 C.ar    1  UNL1        0.0303
     20 C         140.5823  140.9298  165.5375 C.ar    1  UNL1        0.0027
     21 C         140.0193  139.9811  167.8898 C.ar    1  UNL1        0.0405
     22 C         141.3932  139.9579  168.4916 C.ar    1  UNL1        0.1022
     23 N         141.5600  139.9965  169.9817 N.ar    1  UNL1       -0.2224
     24 C         140.3529  140.0584  170.8701 C.ar    1  UNL1        0.1989
     25 N         138.9791  140.0817  170.2684 N.ar    1  UNL1       -0.2224
     26 C         138.8123  140.0430  168.7781 C.ar    1  UNL1        0.1022
     27 C         142.2110  140.8233  163.1517 C.ar    1  UNL1        0.0327
     28 C         143.2973  140.8214  164.1861 C.ar    1  UNL1        0.0211
     29 C         144.3629  139.7664  164.1526 C.ar    1  UNL1        0.0986
     30 N         144.3423  138.7132  163.0847 N.ar    1  UNL1       -0.2399
     31 C         143.2561  138.7151  162.0503 C.ar    1  UNL1        0.1525
     32 C         142.1904  139.7701  162.0838 C.ar    1  UNL1        0.0235
     33 C         143.2355  137.6619  160.9824 C.3     1  UNL1        0.4348
     34 F         143.2149  136.6087  159.9145 F       1  UNL1       -0.1644
     35 F         141.8435  138.0730  160.6038 F       1  UNL1       -0.1644
     36 F         144.6275  137.2508  161.3610 F       1  UNL1       -0.1644
@<TRIPOS>BOND
     1     1     2    1
     2     2     3    2
     3     3     4    1
     4     4    27    1
     5    27    28   ar
     6    28    29   ar
     7    29    30   ar
     8    30    31   ar
     9    31    33    1
    10    33    34    1
    11    33    35    1
    12    33    36    1
    13    31    32   ar
    14     4    14    1
    15    14    15   ar
    16    15    16   ar
    17    16    17   ar
    18    17    18    1
    19    17    19   ar
    20    19    21    1
    21    21    22   ar
    22    22    23   ar
    23    23    24   ar
    24    24    25   ar
    25    25    26   ar
    26    19    20   ar
    27     4     5    1
    28     5     6   ar
    29     6     7   ar
    30     7     8   ar
    31     8     9   ar
    32     9    10    1
    33     9    11   ar
    34    11     2    1
    35    32    27   ar
    36    20    14   ar
    37    11     5   ar
    38    26    21   ar
    39     1    12    1
    40     1    13    1
@<TRIPOS>MOLECULE
*****
 36 40 0 0 0
SMALL
GASTEIGER

@<TRIPOS>ATOM
      1 N         136.9691  137.5850  167.7310 N.pl3   1  UNL1       -0.2464
      2 C         138.0255  138.4757  167.1472 C.2     1  UNL1        0.3157
      3 N         138.5740  138.3963  165.7534 N.2     1  UNL1       -0.0614
      4 C         139.6063  139.4737  165.5995 C.3     1  UNL1        0.2309
      5 C         139.6957  140.2189  166.8983 C.ar    1  UNL1        0.0390
      6 C         140.5406  141.3794  167.3334 C.ar    1  UNL1        0.0008
      7 C         140.4084  141.9231  168.7251 C.ar    1  UNL1        0.0021
      8 C         139.4314  141.3063  169.6817 C.ar    1  UNL1        0.0299
      9 C         138.5865  140.1457  169.2465 C.ar    1  UNL1        0.1470
     10 F         137.6095  139.5289  170.2030 F       1  UNL1       -0.2039
     11 C         138.7187  139.6021  167.8548 C.ar    1  UNL1        0.1094
     12 H         136.5717  136.8691  167.1844 H       1  UNL1        0.2884
     13 H         136.6733  137.7163  168.6608 H       1  UNL1        0.2884
     14 C         140.6662  140.4374  165.1547 C.ar    1  UNL1        0.0298
     15 C         142.0749  140.2825  165.6465 C.ar    1  UNL1        0.0027
     16 C         143.1348  141.2462  165.2017 C.ar    1  UNL1        0.0295
     17 C         142.7861  142.3648  164.2651 C.ar    1  UNL1        0.1402
     18 F         143.8460  143.3285  163.8202 F       1  UNL1       -0.2042
     19 C         141.3775  142.5197  163.7733 C.ar    1  UNL1        0.0303
     20 C         140.3175  141.5559  164.2181 C.ar    1  UNL1        0.0027
     21 C         141.0287  143.6382  162.8366 C.ar    1  UNL1        0.0405
     22 C         141.5930  143.6561  161.4469 C.ar    1  UNL1        0.1022
     23 N         141.2443  144.7745  160.5102 N.ar    1  UNL1       -0.2224
     24 C         140.3313  145.8751  160.9633 C.ar    1  UNL1        0.1989
     25 N         139.7670  145.8571  162.3529 N.ar    1  UNL1       -0.2224
     26 C         140.1157  144.7387  163.2897 C.ar    1  UNL1        0.1022
     27 C         139.7384  138.9299  164.2078 C.ar    1  UNL1        0.0327
     28 C         138.5138  138.7026  163.3719 C.ar    1  UNL1        0.0211
     29 C         138.6460  138.1589  161.9803 C.ar    1  UNL1        0.0986
     30 N         140.0028  137.8425  161.4244 N.ar    1  UNL1       -0.2399
     31 C         141.2274  138.0697  162.2602 C.ar    1  UNL1        0.1525
     32 C         141.0952  138.6135  163.6519 C.ar    1  UNL1        0.0235
     33 C         142.5842  137.7533  161.7044 C.3     1  UNL1        0.4348
     34 F         143.9410  137.4368  161.1485 F       1  UNL1       -0.1644
     35 F         141.9792  137.5413  160.3483 F       1  UNL1       -0.1644
     36 F         143.1892  137.9653  163.0605 F       1  UNL1       -0.1644
@<TRIPOS>BOND
     1     1     2    1
     2     2     3    2
     3     3     4    1
     4     4    27    1
     5    27    28   ar
     6    28    29   ar
     7    29    30   ar
     8    30    31   ar
     9    31    33    1
    10    33    34    1
    11    33    35    1
    12    33    36    1
    13    31    32   ar
    14     4    14    1
    15    14    15   ar
    16    15    16   ar
    17    16    17   ar
    18    17    18    1
    19    17    19   ar
    20    19    21    1
    21    21    22   ar
    22    22    23   ar
    23    23    24   ar
    24    24    25   ar
    25    25    26   ar
    26    19    20   ar
    27     4     5    1
    28     5     6   ar
    29     6     7   ar
    30     7     8   ar
    31     8     9   ar
    32     9    10    1
    33     9    11   ar
    34    11     2    1
    35    32    27   ar
    36    20    14   ar
    37    11     5   ar
    38    26    21   ar
    39     1    12    1
    40     1    13    1
@<TRIPOS>MOLECULE
*****
 36 40 0 0 0
SMALL
GASTEIGER

@<TRIPOS>ATOM
      1 N         141.1125  143.6516  161.1631 N.pl3   1  UNL1       -0.2464
      2 C         141.4733  142.8397  162.3717 C.2     1  UNL1        0.3157
      3 N         140.8581  141.5311  162.7705 N.2     1  UNL1       -0.0614
      4 C         141.5173  141.0765  164.0389 C.3     1  UNL1        0.2309
      5 C         142.5399  142.1042  164.4240 C.ar    1  UNL1        0.0390
      6 C         143.4923  142.1885  165.5797 C.ar    1  UNL1        0.0008
      7 C         144.4174  143.3625  165.7051 C.ar    1  UNL1        0.0021
      8 C         144.3902  144.4522  164.6747 C.ar    1  UNL1        0.0299
      9 C         143.4379  144.3679  163.5189 C.ar    1  UNL1        0.1470
     10 F         143.4107  145.4576  162.4885 F       1  UNL1       -0.2039
     11 C         142.5127  143.1939  163.3935 C.ar    1  UNL1        0.1094
     12 H         140.4128  143.3340  160.5476 H       1  UNL1        0.2884
     13 H         141.5753  144.5022  160.9854 H       1  UNL1        0.2884
     14 C         141.9831  140.3765  165.2810 C.ar    1  UNL1        0.0298
     15 C         142.8652  139.1679  165.1749 C.ar    1  UNL1        0.0027
     16 C         143.3310  138.4679  166.4171 C.ar    1  UNL1        0.0295
     17 C         142.9147  138.9764  167.7654 C.ar    1  UNL1        0.1402
     18 F         143.3804  138.2764  169.0076 F       1  UNL1       -0.2042
     19 C         142.0326  140.1850  167.8716 C.ar    1  UNL1        0.0303
     20 C         141.5668  140.8851  166.6294 C.ar    1  UNL1        0.0027
     21 C         141.6162  140.6936  169.2200 C.ar    1  UNL1        0.0405
     22 C         142.2086  141.9621  169.7587 C.ar    1  UNL1        0.1022
     23 N         141.7923  142.4708  171.1069 N.ar    1  UNL1       -0.2224
     24 C         140.7837  141.7110  171.9165 C.ar    1  UNL1        0.1989
     25 N         140.1914  140.4426  171.3778 N.ar    1  UNL1       -0.2224
     26 C         140.6077  139.9339  170.0295 C.ar    1  UNL1        0.1022
     27 C         140.5921  139.9025  163.9135 C.ar    1  UNL1        0.0327
     28 C         140.5566  139.1081  162.6417 C.ar    1  UNL1        0.0211
     29 C         139.6314  137.9341  162.5163 C.ar    1  UNL1        0.0986
     30 N         138.7417  137.5546  163.6628 N.ar    1  UNL1       -0.2399
     31 C         138.7772  138.3490  164.9346 C.ar    1  UNL1        0.1525
     32 C         139.7024  139.5230  165.0599 C.ar    1  UNL1        0.0235
     33 C         137.8875  137.9695  166.0811 C.3     1  UNL1        0.4348
     34 F         136.9978  137.5900  167.2275 F       1  UNL1       -0.1644
     35 F         137.6375  139.4205  166.3674 F       1  UNL1       -0.1644
     36 F         138.1374  136.5185  165.7947 F       1  UNL1       -0.1644
@<TRIPOS>BOND
     1     1     2    1
     2     2     3    2
     3     3     4    1
     4     4    27    1
     5    27    28   ar
     6    28    29   ar
     7    29    30   ar
     8    30    31   ar
     9    31    33    1
    10    33    34    1
    11    33    35    1
    12    33    36    1
    13    31    32   ar
    14     4    14    1
    15    14    15   ar
    16    15    16   ar
    17    16    17   ar
    18    17    18    1
    19    17    19   ar
    20    19    21    1
    21    21    22   ar
    22    22    23   ar
    23    23    24   ar
    24    24    25   ar
    25    25    26   ar
    26    19    20   ar
    27     4     5    1
    28     5     6   ar
    29     6     7   ar
    30     7     8   ar
    31     8     9   ar
    32     9    10    1
    33     9    11   ar
    34    11     2    1
    35    32    27   ar
    36    20    14   ar
    37    11     5   ar
    38    26    21   ar
    39     1    12    1
    40     1    13    1
@<TRIPOS>MOLECULE
*****
 36 40 0 0 0
SMALL
GASTEIGER

@<TRIPOS>ATOM
      1 N         143.2341  142.9461  170.1130 N.pl3   1  UNL1       -0.2464
      2 C         142.6027  142.1930  168.9798 C.2     1  UNL1        0.3157
      3 N         143.1575  142.0588  167.5927 N.2     1  UNL1       -0.0614
      4 C         142.2032  141.2247  166.7905 C.3     1  UNL1        0.2309
      5 C         141.0585  140.8435  167.6818 C.ar    1  UNL1        0.0390
      6 C         139.8234  140.0287  167.4360 C.ar    1  UNL1        0.0008
      7 C         138.8350  139.8124  168.5434 C.ar    1  UNL1        0.0021
      8 C         139.0819  140.4108  169.8966 C.ar    1  UNL1        0.0299
      9 C         140.3171  141.2256  170.1423 C.ar    1  UNL1        0.1470
     10 F         140.5640  141.8240  171.4954 F       1  UNL1       -0.2039
     11 C         141.3054  141.4419  169.0349 C.ar    1  UNL1        0.1094
     12 H         144.0920  143.4100  169.9783 H       1  UNL1        0.2884
     13 H         142.7907  142.9765  170.9915 H       1  UNL1        0.2884
     14 C         141.4555  140.4359  165.7567 C.ar    1  UNL1        0.0298
     15 C         141.3339  138.9469  165.8925 C.ar    1  UNL1        0.0027
     16 C         140.5862  138.1581  164.8588 C.ar    1  UNL1        0.0295
     17 C         139.9601  138.8582  163.6892 C.ar    1  UNL1        0.1402
     18 F         139.2124  138.0693  162.6554 F       1  UNL1       -0.2042
     19 C         140.0817  140.3470  163.5533 C.ar    1  UNL1        0.0303
     20 C         140.8294  141.1359  164.5871 C.ar    1  UNL1        0.0027
     21 C         139.4556  141.0472  162.3838 C.ar    1  UNL1        0.0405
     22 C         138.3692  142.0569  162.6080 C.ar    1  UNL1        0.1022
     23 N         137.7431  142.7571  161.4386 N.ar    1  UNL1       -0.2224
     24 C         138.2034  142.4475  160.0448 C.ar    1  UNL1        0.1989
     25 N         139.2897  141.4378  159.8206 N.ar    1  UNL1       -0.2224
     26 C         139.9159  140.7376  160.9901 C.ar    1  UNL1        0.1022
     27 C         143.1916  141.4411  165.6830 C.ar    1  UNL1        0.0327
     28 C         144.0793  140.3162  165.2397 C.ar    1  UNL1        0.0211
     29 C         145.0677  140.5326  164.1323 C.ar    1  UNL1        0.0986
     30 N         145.1683  141.8739  163.4683 N.ar    1  UNL1       -0.2399
     31 C         144.2806  142.9987  163.9116 C.ar    1  UNL1        0.1525
     32 C         143.2922  142.7823  165.0190 C.ar    1  UNL1        0.0235
     33 C         144.3812  144.3400  163.2476 C.3     1  UNL1        0.4348
     34 F         144.4818  145.6812  162.5836 F       1  UNL1       -0.1644
     35 F         144.7361  143.6721  161.9523 F       1  UNL1       -0.1644
     36 F         144.0263  145.0079  164.5430 F       1  UNL1       -0.1644
@<TRIPOS>BOND
     1     1     2    1
     2     2     3    2
     3     3     4    1
     4     4    27    1
     5    27    28   ar
     6    28    29   ar
     7    29    30   ar
     8    30    31   ar
     9    31    33    1
    10    33    34    1
    11    33    35    1
    12    33    36    1
    13    31    32   ar
    14     4    14    1
    15    14    15   ar
    16    15    16   ar
    17    16    17   ar
    18    17    18    1
    19    17    19   ar
    20    19    21    1
    21    21    22   ar
    22    22    23   ar
    23    23    24   ar
    24    24    25   ar
    25    25    26   ar
    26    19    20   ar
    27     4     5    1
    28     5     6   ar
    29     6     7   ar
    30     7     8   ar
    31     8     9   ar
    32     9    10    1
    33     9    11   ar
    34    11     2    1
    35    32    27   ar
    36    20    14   ar
    37    11     5   ar
    38    26    21   ar
    39     1    12    1
    40     1    13    1
