@<TRIPOS>MOLECULE
*****
 29 31 0 0 0
SMALL
GASTEIGER

@<TRIPOS>ATOM
      1 C         140.0199  144.0854  164.3121 C.ar    1  UNL1        0.0873
      2 S         141.0511  144.5428  163.3234 S.2     1  UNL1       -0.0433
      3 C         140.3338  145.0708  162.1164 C.ar    1  UNL1        0.1669
      4 N         138.8594  144.9397  162.3592 N.ar    1  UNL1       -0.2276
      5 C         138.6654  144.3307  163.7162 C.ar    1  UNL1        0.0750
      6 C         137.3482  144.0213  164.3637 C.3     1  UNL1        0.0534
      7 N         140.9779  145.6314  160.8832 N.am    1  UNL1       -0.2484
      8 C         140.6003  145.1001  159.5322 C.2     1  UNL1        0.3060
      9 O         139.5786  144.0081  159.4145 O.2     1  UNL1       -0.2524
     10 N         141.2443  145.6607  158.2989 N.am    1  UNL1       -0.2862
     11 H         141.6484  146.3481  160.9604 H       1  UNL1        0.1583
     12 H         141.9149  146.3774  158.3762 H       1  UNL1        0.1511
     13 C         140.8668  145.1294  156.9480 C.3     1  UNL1        0.1203
     14 C         139.7265  145.7445  156.1921 C.3     1  UNL1        0.1348
     15 C         139.0370  144.9664  155.1108 C.3     1  UNL1        0.0339
     16 O         139.2758  147.1377  156.5173 O.3     1  UNL1       -0.3545
     17 C         138.8392  148.0605  155.4183 C.3     1  UNL1        0.1420
     18 C         138.7396  149.5355  155.6726 C.3     1  UNL1        0.0297
     19 C         138.4934  150.6777  156.6131 C.3     1  UNL1        0.0026
     20 C         138.8131  150.9477  155.1727 C.3     1  UNL1        0.0026
     21 C         140.5703  142.8900  167.0081 C.1     1  UNL1       -0.0577
     22 C         140.2951  143.4877  165.6601 C.1     1  UNL1       -0.0519
     23 C         142.3945  138.9864  169.9123 C.3     1  UNL1        0.0327
     24 C         141.7575  140.3405  169.8082 C.ar    1  UNL1       -0.0021
     25 C         141.3957  141.0968  171.0519 C.ar    1  UNL1        0.0946
     26 N         140.7588  142.4509  170.9478 N.ar    1  UNL1       -0.2420
     27 C         140.4836  143.0486  169.5999 C.ar    1  UNL1        0.1070
     28 C         140.8454  142.2923  168.3561 C.ar    1  UNL1        0.0608
     29 C         141.4824  140.9382  168.4602 C.ar    1  UNL1        0.0071
@<TRIPOS>BOND
     1    23    24    1
     2    24    25   ar
     3    25    26   ar
     4    26    27   ar
     5    27    28   ar
     6    28    21    1
     7    21    22    3
     8    22     1    1
     9     1     2   ar
    10     2     3   ar
    11     3     7    1
    12     7     8   am
    13     8     9    2
    14     8    10   am
    15    10    13    1
    16    13    14    1
    17    14    15    1
    18    14    16    1
    19    16    17    1
    20    17    18    1
    21    18    19    1
    22    19    20    1
    23     3     4   ar
    24     4     5   ar
    25     5     6    1
    26    28    29   ar
    27    29    24   ar
    28     5     1   ar
    29    20    18    1
    30     7    11    1
    31    10    12    1
@<TRIPOS>MOLECULE
*****
 29 31 0 0 0
SMALL
GASTEIGER

@<TRIPOS>ATOM
      1 C         139.2720  139.2096  164.3705 C.ar    1  UNL1        0.0873
      2 S         138.2793  139.7737  163.3977 S.2     1  UNL1       -0.0433
      3 C         138.2721  138.8958  162.1813 C.ar    1  UNL1        0.1669
      4 N         139.2605  137.7893  162.4025 N.ar    1  UNL1       -0.2276
      5 C         139.8784  137.9833  163.7554 C.ar    1  UNL1        0.0750
      6 C         140.9199  137.1051  164.3832 C.3     1  UNL1        0.0534
      7 N         137.4254  139.0904  160.9586 N.am    1  UNL1       -0.2484
      8 C         137.9058  139.9750  159.8465 C.2     1  UNL1        0.3060
      9 O         139.2331  140.6650  159.9573 O.2     1  UNL1       -0.2524
     10 N         137.0591  140.1695  158.6238 N.am    1  UNL1       -0.2862
     11 H         136.5542  138.6375  160.8859 H       1  UNL1        0.1583
     12 H         136.1880  139.7166  158.5511 H       1  UNL1        0.1511
     13 C         137.5395  141.0541  157.5118 C.3     1  UNL1        0.1203
     14 C         136.7846  141.1078  156.2167 C.3     1  UNL1        0.1348
     15 C         136.6130  142.4156  155.5023 C.3     1  UNL1        0.0339
     16 O         136.2014  139.8539  155.6360 O.3     1  UNL1       -0.3545
     17 C         134.8712  139.8959  154.9441 C.3     1  UNL1        0.1420
     18 C         133.6244  140.1710  155.7315 C.3     1  UNL1        0.0297
     19 C         132.7366  139.8752  156.9038 C.3     1  UNL1        0.0026
     20 C         132.3530  140.9433  155.9231 C.3     1  UNL1        0.0026
     21 C         139.9292  140.3365  167.0720 C.1     1  UNL1       -0.0577
     22 C         139.6006  139.7731  165.7213 C.1     1  UNL1       -0.0519
     23 C         140.5178  144.4295  170.2186 C.3     1  UNL1        0.0327
     24 C         140.5521  142.9465  169.9961 C.ar    1  UNL1       -0.0021
     25 C         140.9149  142.0270  171.1242 C.ar    1  UNL1        0.0946
     26 N         140.9492  140.5440  170.9017 N.ar    1  UNL1       -0.2420
     27 C         140.6206  139.9805  169.5510 C.ar    1  UNL1        0.1070
     28 C         140.2578  140.9000  168.4228 C.ar    1  UNL1        0.0608
     29 C         140.2235  142.3830  168.6454 C.ar    1  UNL1        0.0071
@<TRIPOS>BOND
     1    23    24    1
     2    24    25   ar
     3    25    26   ar
     4    26    27   ar
     5    27    28   ar
     6    28    21    1
     7    21    22    3
     8    22     1    1
     9     1     2   ar
    10     2     3   ar
    11     3     7    1
    12     7     8   am
    13     8     9    2
    14     8    10   am
    15    10    13    1
    16    13    14    1
    17    14    15    1
    18    14    16    1
    19    16    17    1
    20    17    18    1
    21    18    19    1
    22    19    20    1
    23     3     4   ar
    24     4     5   ar
    25     5     6    1
    26    28    29   ar
    27    29    24   ar
    28     5     1   ar
    29    20    18    1
    30     7    11    1
    31    10    12    1
@<TRIPOS>MOLECULE
*****
 29 31 0 0 0
SMALL
GASTEIGER

@<TRIPOS>ATOM
      1 C         140.3163  143.9544  164.3819 C.ar    1  UNL1        0.0873
      2 S         141.4316  144.3151  163.4460 S.2     1  UNL1       -0.0433
      3 C         140.8269  144.9380  162.2227 C.ar    1  UNL1        0.1669
      4 N         139.3379  144.9623  162.4027 N.ar    1  UNL1       -0.2276
      5 C         139.0224  144.3544  163.7371 C.ar    1  UNL1        0.0750
      6 C         137.6533  144.1775  164.3239 C.3     1  UNL1        0.0534
      7 N         141.5792  145.4473  161.0290 N.am    1  UNL1       -0.2484
      8 C         141.3011  144.8792  159.6689 C.2     1  UNL1        0.3060
      9 O         140.2707  143.8018  159.5025 O.2     1  UNL1       -0.2524
     10 N         142.0533  145.3884  158.4752 N.am    1  UNL1       -0.2862
     11 H         142.2554  146.1544  161.1383 H       1  UNL1        0.1583
     12 H         142.7295  146.0955  158.5845 H       1  UNL1        0.1511
     13 C         141.7752  144.8203  157.1152 C.3     1  UNL1        0.1203
     14 C         141.0965  145.6618  156.0753 C.3     1  UNL1        0.1348
     15 C         141.6354  145.7042  154.6761 C.3     1  UNL1        0.0339
     16 O         139.8791  146.4609  156.4347 O.3     1  UNL1       -0.3545
     17 C         138.7048  146.4989  155.5022 C.3     1  UNL1        0.1420
     18 C         137.9479  145.2401  155.1975 C.3     1  UNL1        0.0297
     19 C         137.5683  143.8338  155.5552 C.3     1  UNL1        0.0026
     20 C         137.0168  144.4663  154.3120 C.3     1  UNL1        0.0026
     21 C         140.6203  142.6602  167.0713 C.1     1  UNL1       -0.0577
     22 C         140.4683  143.3073  165.7266 C.1     1  UNL1       -0.0519
     23 C         142.4890  138.8207  170.0321 C.3     1  UNL1        0.0327
     24 C         141.7067  140.0933  169.8964 C.ar    1  UNL1       -0.0021
     25 C         141.0764  140.7188  171.1052 C.ar    1  UNL1        0.0946
     26 N         140.2940  141.9914  170.9695 N.ar    1  UNL1       -0.2420
     27 C         140.1420  142.6385  169.6249 C.ar    1  UNL1        0.1070
     28 C         140.7723  142.0130  168.4160 C.ar    1  UNL1        0.0608
     29 C         141.5546  140.7404  168.5517 C.ar    1  UNL1        0.0071
@<TRIPOS>BOND
     1    23    24    1
     2    24    25   ar
     3    25    26   ar
     4    26    27   ar
     5    27    28   ar
     6    28    21    1
     7    21    22    3
     8    22     1    1
     9     1     2   ar
    10     2     3   ar
    11     3     7    1
    12     7     8   am
    13     8     9    2
    14     8    10   am
    15    10    13    1
    16    13    14    1
    17    14    15    1
    18    14    16    1
    19    16    17    1
    20    17    18    1
    21    18    19    1
    22    19    20    1
    23     3     4   ar
    24     4     5   ar
    25     5     6    1
    26    28    29   ar
    27    29    24   ar
    28     5     1   ar
    29    20    18    1
    30     7    11    1
    31    10    12    1
@<TRIPOS>MOLECULE
*****
 29 31 0 0 0
SMALL
GASTEIGER

@<TRIPOS>ATOM
      1 C         140.5211  143.9097  163.1880 C.ar    1  UNL1        0.0873
      2 S         141.5670  144.3713  162.2169 S.2     1  UNL1       -0.0433
      3 C         140.8853  145.1726  161.1476 C.ar    1  UNL1        0.1669
      4 N         139.4181  145.2062  161.4579 N.ar    1  UNL1       -0.2276
      5 C         139.1930  144.4257  162.7189 C.ar    1  UNL1        0.0750
      6 C         137.8719  144.2006  163.3926 C.3     1  UNL1        0.0534
      7 N         141.5535  145.8256  159.9741 N.am    1  UNL1       -0.2484
      8 C         141.2283  145.3766  158.5804 C.2     1  UNL1        0.3060
      9 O         140.2349  144.2744  158.3602 O.2     1  UNL1       -0.2524
     10 N         141.8964  146.0296  157.4069 N.am    1  UNL1       -0.2862
     11 H         142.2055  146.5490  160.1187 H       1  UNL1        0.1583
     12 H         142.5484  146.7529  157.5514 H       1  UNL1        0.1511
     13 C         141.5713  145.5805  156.0132 C.3     1  UNL1        0.1203
     14 C         140.4367  146.2163  155.2659 C.3     1  UNL1        0.1348
     15 C         139.2509  145.3924  154.8597 C.3     1  UNL1        0.0339
     16 O         140.4879  147.6761  154.9247 O.3     1  UNL1       -0.3545
     17 C         139.2226  148.4175  154.6098 C.3     1  UNL1        0.1420
     18 C         138.7871  149.5606  155.4782 C.3     1  UNL1        0.0297
     19 C         138.5209  151.0254  155.6604 C.3     1  UNL1        0.0026
     20 C         138.2992  150.0754  156.7998 C.3     1  UNL1        0.0026
     21 C         141.0013  142.2465  165.6382 C.1     1  UNL1       -0.0577
     22 C         140.7612  143.0781  164.4131 C.1     1  UNL1       -0.0519
     23 C         139.3006  140.2410  170.1198 C.3     1  UNL1        0.0327
     24 C         140.3910  140.4122  169.1041 C.ar    1  UNL1       -0.0021
     25 C         141.7214  139.7518  169.3134 C.ar    1  UNL1        0.0946
     26 N         142.8118  139.9230  168.2977 N.ar    1  UNL1       -0.2420
     27 C         142.5718  140.7546  167.0726 C.ar    1  UNL1        0.1070
     28 C         141.2414  141.4149  166.8633 C.ar    1  UNL1        0.0608
     29 C         140.1510  141.2437  167.8790 C.ar    1  UNL1        0.0071
@<TRIPOS>BOND
     1    23    24    1
     2    24    25   ar
     3    25    26   ar
     4    26    27   ar
     5    27    28   ar
     6    28    21    1
     7    21    22    3
     8    22     1    1
     9     1     2   ar
    10     2     3   ar
    11     3     7    1
    12     7     8   am
    13     8     9    2
    14     8    10   am
    15    10    13    1
    16    13    14    1
    17    14    15    1
    18    14    16    1
    19    16    17    1
    20    17    18    1
    21    18    19    1
    22    19    20    1
    23     3     4   ar
    24     4     5   ar
    25     5     6    1
    26    28    29   ar
    27    29    24   ar
    28     5     1   ar
    29    20    18    1
    30     7    11    1
    31    10    12    1
@<TRIPOS>MOLECULE
*****
 29 31 0 0 0
SMALL
GASTEIGER

@<TRIPOS>ATOM
      1 C         142.5109  143.1688  163.8184 C.ar    1  UNL1        0.0873
      2 S         141.5839  143.9941  162.9762 S.2     1  UNL1       -0.0433
      3 C         142.3362  144.4366  161.7561 C.ar    1  UNL1        0.1669
      4 N         143.7282  143.8845  161.8444 N.ar    1  UNL1       -0.2276
      5 C         143.8361  143.1010  163.1190 C.ar    1  UNL1        0.0750
      6 C         145.0552  142.3769  163.6082 C.3     1  UNL1        0.0534
      7 N         141.7921  145.2824  160.6433 N.am    1  UNL1       -0.2484
      8 C         141.1579  144.6332  159.4490 C.2     1  UNL1        0.3060
      9 O         141.0679  143.1381  159.3676 O.2     1  UNL1       -0.2524
     10 N         140.6138  145.4790  158.3361 N.am    1  UNL1       -0.2862
     11 H         141.8512  146.2637  160.6967 H       1  UNL1        0.1583
     12 H         140.6729  146.4603  158.3896 H       1  UNL1        0.1511
     13 C         139.9797  144.8298  157.1419 C.3     1  UNL1        0.1203
     14 C         139.3769  145.6760  156.0599 C.3     1  UNL1        0.1348
     15 C         138.1573  145.2004  155.3276 C.3     1  UNL1        0.0339
     16 O         139.9938  146.9978  155.7103 O.3     1  UNL1       -0.3545
     17 C         139.1998  148.0184  154.9501 C.3     1  UNL1        0.1420
     18 C         138.7981  149.3024  155.6135 C.3     1  UNL1        0.0297
     19 C         138.6595  150.7955  155.5769 C.3     1  UNL1        0.0026
     20 C         138.2411  150.0332  156.7990 C.3     1  UNL1        0.0026
     21 C         141.8334  141.8799  166.4413 C.1     1  UNL1       -0.0577
     22 C         142.1722  142.5243  165.1299 C.1     1  UNL1       -0.0519
     23 C         142.8616  138.3628  170.1255 C.3     1  UNL1        0.0327
     24 C         142.0087  139.4769  169.5949 C.ar    1  UNL1       -0.0021
     25 C         140.8171  139.9464  170.3756 C.ar    1  UNL1        0.0946
     26 N         139.9643  141.0604  169.8450 N.ar    1  UNL1       -0.2420
     27 C         140.3030  141.7049  168.5335 C.ar    1  UNL1        0.1070
     28 C         141.4946  141.2354  167.7528 C.ar    1  UNL1        0.0608
     29 C         142.3474  140.1213  168.2835 C.ar    1  UNL1        0.0071
@<TRIPOS>BOND
     1    23    24    1
     2    24    25   ar
     3    25    26   ar
     4    26    27   ar
     5    27    28   ar
     6    28    21    1
     7    21    22    3
     8    22     1    1
     9     1     2   ar
    10     2     3   ar
    11     3     7    1
    12     7     8   am
    13     8     9    2
    14     8    10   am
    15    10    13    1
    16    13    14    1
    17    14    15    1
    18    14    16    1
    19    16    17    1
    20    17    18    1
    21    18    19    1
    22    19    20    1
    23     3     4   ar
    24     4     5   ar
    25     5     6    1
    26    28    29   ar
    27    29    24   ar
    28     5     1   ar
    29    20    18    1
    30     7    11    1
    31    10    12    1
@<TRIPOS>MOLECULE
*****
 29 31 0 0 0
SMALL
GASTEIGER

@<TRIPOS>ATOM
      1 C         140.2995  144.0172  164.5434 C.ar    1  UNL1        0.0873
      2 S         141.4010  144.3347  163.5759 S.2     1  UNL1       -0.0433
      3 C         140.7888  144.9998  162.3788 C.ar    1  UNL1        0.1669
      4 N         139.3091  145.0933  162.6065 N.ar    1  UNL1       -0.2276
      5 C         139.0068  144.4861  163.9443 C.ar    1  UNL1        0.0750
      6 C         137.6499  144.3683  164.5728 C.3     1  UNL1        0.0534
      7 N         141.5268  145.4860  161.1667 N.am    1  UNL1       -0.2484
      8 C         141.2212  144.9034  159.8187 C.2     1  UNL1        0.3060
      9 O         140.1775  143.8346  159.6828 O.2     1  UNL1       -0.2524
     10 N         141.9591  145.3896  158.6067 N.am    1  UNL1       -0.2862
     11 H         142.2118  146.1874  161.2560 H       1  UNL1        0.1583
     12 H         142.6441  146.0910  158.6960 H       1  UNL1        0.1511
     13 C         141.6535  144.8070  157.2587 C.3     1  UNL1        0.1203
     14 C         142.7204  144.0774  156.4976 C.3     1  UNL1        0.1348
     15 C         142.9381  144.3714  155.0429 C.3     1  UNL1        0.0339
     16 O         143.5695  143.0537  157.1911 O.3     1  UNL1       -0.3545
     17 C         144.2435  141.9751  156.3959 C.3     1  UNL1        0.1420
     18 C         145.7298  142.0079  156.1963 C.3     1  UNL1        0.0297
     19 C         147.0766  142.5630  156.5541 C.3     1  UNL1        0.0026
     20 C         146.9573  141.5098  155.4928 C.3     1  UNL1        0.0026
     21 C         140.6252  142.6794  167.2088 C.1     1  UNL1       -0.0577
     22 C         140.4624  143.3483  165.8762 C.1     1  UNL1       -0.0519
     23 C         142.5361  138.8041  170.0952 C.3     1  UNL1        0.0327
     24 C         141.7435  140.0729  169.9847 C.ar    1  UNL1       -0.0021
     25 C         141.1138  140.6726  171.2068 C.ar    1  UNL1        0.0946
     26 N         140.3213  141.9414  171.0963 N.ar    1  UNL1       -0.2420
     27 C         140.1584  142.6103  169.7637 C.ar    1  UNL1        0.1070
     28 C         140.7881  142.0105  168.5415 C.ar    1  UNL1        0.0608
     29 C         141.5807  140.7418  168.6520 C.ar    1  UNL1        0.0071
@<TRIPOS>BOND
     1    23    24    1
     2    24    25   ar
     3    25    26   ar
     4    26    27   ar
     5    27    28   ar
     6    28    21    1
     7    21    22    3
     8    22     1    1
     9     1     2   ar
    10     2     3   ar
    11     3     7    1
    12     7     8   am
    13     8     9    2
    14     8    10   am
    15    10    13    1
    16    13    14    1
    17    14    15    1
    18    14    16    1
    19    16    17    1
    20    17    18    1
    21    18    19    1
    22    19    20    1
    23     3     4   ar
    24     4     5   ar
    25     5     6    1
    26    28    29   ar
    27    29    24   ar
    28     5     1   ar
    29    20    18    1
    30     7    11    1
    31    10    12    1
@<TRIPOS>MOLECULE
*****
 29 31 0 0 0
SMALL
GASTEIGER

@<TRIPOS>ATOM
      1 C         141.4327  138.6094  164.3290 C.ar    1  UNL1        0.0873
      2 S         142.5159  138.6042  163.2913 S.2     1  UNL1       -0.0433
      3 C         142.0386  137.7875  162.1271 C.ar    1  UNL1        0.1669
      4 N         140.6605  137.2879  162.4454 N.ar    1  UNL1       -0.2276
      5 C         140.2860  137.7959  163.8062 C.ar    1  UNL1        0.0750
      6 C         138.9921  137.5361  164.5190 C.3     1  UNL1        0.0534
      7 N         142.8049  137.5177  160.8662 N.am    1  UNL1       -0.2484
      8 C         142.3777  138.1561  159.5778 C.2     1  UNL1        0.3060
      9 O         141.1841  139.0642  159.5504 O.2     1  UNL1       -0.2524
     10 N         143.1440  137.8863  158.3168 N.am    1  UNL1       -0.2862
     11 H         143.5883  136.9216  160.8842 H       1  UNL1        0.1583
     12 H         143.9273  137.2902  158.3349 H       1  UNL1        0.1511
     13 C         142.7168  138.5246  157.0285 C.3     1  UNL1        0.1203
     14 C         142.7126  137.7240  155.7601 C.3     1  UNL1        0.1348
     15 C         142.8451  138.4161  154.4359 C.3     1  UNL1        0.0339
     16 O         142.5759  136.2313  155.8157 O.3     1  UNL1       -0.3545
     17 C         143.7780  135.3779  156.0927 C.3     1  UNL1        0.1420
     18 C         143.6314  133.8892  156.2038 C.3     1  UNL1        0.0297
     19 C         143.9118  132.5133  155.6763 C.3     1  UNL1        0.0026
     20 C         143.0971  132.6866  156.9237 C.3     1  UNL1        0.0026
     21 C         141.5409  140.0022  166.9838 C.1     1  UNL1       -0.0577
     22 C         141.4868  139.3058  165.6564 C.1     1  UNL1       -0.0519
     23 C         140.4214  144.1139  169.9573 C.3     1  UNL1        0.0327
     24 C         141.0352  142.7545  169.7980 C.ar    1  UNL1       -0.0021
     25 C         141.7031  142.0916  170.9661 C.ar    1  UNL1        0.0946
     26 N         142.3169  140.7322  170.8068 N.ar    1  UNL1       -0.2420
     27 C         142.2628  140.0358  169.4794 C.ar    1  UNL1        0.1070
     28 C         141.5950  140.6987  168.3113 C.ar    1  UNL1        0.0608
     29 C         140.9811  142.0581  168.4706 C.ar    1  UNL1        0.0071
@<TRIPOS>BOND
     1    23    24    1
     2    24    25   ar
     3    25    26   ar
     4    26    27   ar
     5    27    28   ar
     6    28    21    1
     7    21    22    3
     8    22     1    1
     9     1     2   ar
    10     2     3   ar
    11     3     7    1
    12     7     8   am
    13     8     9    2
    14     8    10   am
    15    10    13    1
    16    13    14    1
    17    14    15    1
    18    14    16    1
    19    16    17    1
    20    17    18    1
    21    18    19    1
    22    19    20    1
    23     3     4   ar
    24     4     5   ar
    25     5     6    1
    26    28    29   ar
    27    29    24   ar
    28     5     1   ar
    29    20    18    1
    30     7    11    1
    31    10    12    1
@<TRIPOS>MOLECULE
*****
 29 31 0 0 0
SMALL
GASTEIGER

@<TRIPOS>ATOM
      1 C         143.6189  140.3365  164.0044 C.ar    1  UNL1        0.0873
      2 S         143.2673  139.1656  163.1353 S.2     1  UNL1       -0.0433
      3 C         144.0463  139.2853  161.8589 C.ar    1  UNL1        0.1669
      4 N         144.8793  140.5302  161.9394 N.ar    1  UNL1       -0.2276
      5 C         144.6152  141.1798  163.2654 C.ar    1  UNL1        0.0750
      6 C         145.2379  142.4498  163.7646 C.3     1  UNL1        0.0534
      7 N         144.0003  138.3283  160.7049 N.am    1  UNL1       -0.2484
      8 C         142.9566  138.4877  159.6394 C.2     1  UNL1        0.3060
      9 O         141.9588  139.6042  159.7282 O.2     1  UNL1       -0.2524
     10 N         142.9106  137.5306  158.4854 N.am    1  UNL1       -0.2862
     11 H         144.6552  137.5955  160.6467 H       1  UNL1        0.1583
     12 H         143.5655  136.7978  158.4272 H       1  UNL1        0.1511
     13 C         141.8669  137.6900  157.4200 C.3     1  UNL1        0.1203
     14 C         142.1713  137.2916  156.0063 C.3     1  UNL1        0.1348
     15 C         141.0667  137.2146  154.9943 C.3     1  UNL1        0.0339
     16 O         143.5802  136.9703  155.6044 O.3     1  UNL1       -0.3545
     17 C         143.9902  135.5446  155.3824 C.3     1  UNL1        0.1420
     18 C         143.5962  134.4881  156.3717 C.3     1  UNL1        0.0297
     19 C         143.6274  133.9388  157.7672 C.3     1  UNL1        0.0026
     20 C         142.8827  133.2077  156.6898 C.3     1  UNL1        0.0026
     21 C         142.5221  140.8937  166.7406 C.1     1  UNL1       -0.0577
     22 C         143.0705  140.6151  165.3725 C.1     1  UNL1       -0.0519
     23 C         140.2810  144.1502  170.1130 C.3     1  UNL1        0.0327
     24 C         140.8531  142.8005  169.7949 C.ar    1  UNL1       -0.0021
     25 C         140.8768  141.7295  170.8448 C.ar    1  UNL1        0.0946
     26 N         141.4489  140.3799  170.5266 N.ar    1  UNL1       -0.2420
     27 C         141.9973  140.1013  169.1586 C.ar    1  UNL1        0.1070
     28 C         141.9736  141.1723  168.1087 C.ar    1  UNL1        0.0608
     29 C         141.4016  142.5219  168.4268 C.ar    1  UNL1        0.0071
@<TRIPOS>BOND
     1    23    24    1
     2    24    25   ar
     3    25    26   ar
     4    26    27   ar
     5    27    28   ar
     6    28    21    1
     7    21    22    3
     8    22     1    1
     9     1     2   ar
    10     2     3   ar
    11     3     7    1
    12     7     8   am
    13     8     9    2
    14     8    10   am
    15    10    13    1
    16    13    14    1
    17    14    15    1
    18    14    16    1
    19    16    17    1
    20    17    18    1
    21    18    19    1
    22    19    20    1
    23     3     4   ar
    24     4     5   ar
    25     5     6    1
    26    28    29   ar
    27    29    24   ar
    28     5     1   ar
    29    20    18    1
    30     7    11    1
    31    10    12    1
@<TRIPOS>MOLECULE
*****
 29 31 0 0 0
SMALL
GASTEIGER

@<TRIPOS>ATOM
      1 C         139.0042  139.3425  164.3393 C.ar    1  UNL1        0.0873
      2 S         138.1210  140.0137  163.3297 S.2     1  UNL1       -0.0433
      3 C         138.0341  139.1236  162.1253 C.ar    1  UNL1        0.1669
      4 N         138.8637  137.9024  162.3907 N.ar    1  UNL1       -0.2276
      5 C         139.4633  138.0377  163.7590 C.ar    1  UNL1        0.0750
      6 C         140.3638  137.0428  164.4294 C.3     1  UNL1        0.0534
      7 N         137.2546  139.4054  160.8752 N.am    1  UNL1       -0.2484
      8 C         137.9404  140.0024  159.6821 C.2     1  UNL1        0.3060
      9 O         139.4058  140.3176  159.7394 O.2     1  UNL1       -0.2524
     10 N         137.1609  140.2841  158.4320 N.am    1  UNL1       -0.2862
     11 H         136.2928  139.1985  160.8376 H       1  UNL1        0.1583
     12 H         136.1991  140.0772  158.3945 H       1  UNL1        0.1511
     13 C         137.8466  140.8811  157.2391 C.3     1  UNL1        0.1203
     14 C         137.8601  142.3688  157.0483 C.3     1  UNL1        0.1348
     15 C         136.9580  143.0027  156.0311 C.3     1  UNL1        0.0339
     16 O         138.7755  143.2227  157.8745 O.3     1  UNL1       -0.3545
     17 C         140.2531  143.2052  157.6171 C.3     1  UNL1        0.1420
     18 C         141.2154  143.2699  158.7659 C.3     1  UNL1        0.0297
     19 C         141.5474  143.7167  160.1588 C.3     1  UNL1        0.0026
     20 C         142.5501  142.9351  159.3629 C.3     1  UNL1        0.0026
     21 C         139.7259  140.4205  167.0443 C.1     1  UNL1       -0.0577
     22 C         139.3651  139.8815  165.6918 C.1     1  UNL1       -0.0519
     23 C         140.5115  144.4616  170.2148 C.3     1  UNL1        0.0327
     24 C         140.4796  142.9802  169.9821 C.ar    1  UNL1       -0.0021
     25 C         140.8084  142.0378  171.1017 C.ar    1  UNL1        0.0946
     26 N         140.7765  140.5563  170.8689 N.ar    1  UNL1       -0.2420
     27 C         140.4156  140.0172  169.5165 C.ar    1  UNL1        0.1070
     28 C         140.0868  140.9596  168.3968 C.ar    1  UNL1        0.0608
     29 C         140.1187  142.4411  168.6296 C.ar    1  UNL1        0.0071
@<TRIPOS>BOND
     1    23    24    1
     2    24    25   ar
     3    25    26   ar
     4    26    27   ar
     5    27    28   ar
     6    28    21    1
     7    21    22    3
     8    22     1    1
     9     1     2   ar
    10     2     3   ar
    11     3     7    1
    12     7     8   am
    13     8     9    2
    14     8    10   am
    15    10    13    1
    16    13    14    1
    17    14    15    1
    18    14    16    1
    19    16    17    1
    20    17    18    1
    21    18    19    1
    22    19    20    1
    23     3     4   ar
    24     4     5   ar
    25     5     6    1
    26    28    29   ar
    27    29    24   ar
    28     5     1   ar
    29    20    18    1
    30     7    11    1
    31    10    12    1
