@<TRIPOS>MOLECULE
*****
 33 36 0 0 0
SMALL
GASTEIGER

@<TRIPOS>ATOM
      1 C         142.5139  141.3578  164.6383 C.ar    1  UNL1        0.1220
      2 N         142.5421  142.6368  163.8552 N.ar    1  UNL1       -0.2261
      3 C         143.2890  142.7046  162.5562 C.ar    1  UNL1        0.1479
      4 C         144.0078  141.4934  162.0402 C.ar    1  UNL1        0.1330
      5 N         143.9797  140.2144  162.8233 N.ar    1  UNL1       -0.2348
      6 C         143.2327  140.1466  164.1223 C.ar    1  UNL1        0.1533
      7 C         140.7873  142.2684  169.5905 C.2     1  UNL1        0.1255
      8 C         139.7322  141.6389  170.4508 C.2     1  UNL1        0.0331
      9 C         138.9156  140.4973  169.9217 C.2     1  UNL1        0.0040
     10 C         139.1541  139.9852  168.5322 C.2     1  UNL1        0.0155
     11 C         140.2093  140.6148  167.6718 C.2     1  UNL1        0.0699
     12 N         140.6673  140.3265  166.2728 N.2     1  UNL1       -0.2477
     13 C         141.7670  141.2899  165.9373 C.2     1  UNL1        0.0967
     14 C         141.9886  142.1736  167.1290 C.2     1  UNL1        0.0077
     15 C         141.0259  141.7563  168.2009 C.3     1  UNL1        0.1203
     16 C         143.0127  143.1753  170.5778 C.3     1  UNL1        0.2520
     17 O         141.6039  143.4100  170.1196 O.2     1  UNL1       -0.4750
     18 C         143.2046  138.8674  164.9054 C.2     1  UNL1        0.2621
     19 N         142.0418  137.9298  164.7688 N.am    1  UNL1       -0.3240
     20 O         144.3394  138.5260  165.8250 O.2     1  UNL1       -0.2687
     21 H         141.2970  138.1540  164.1652 H       1  UNL1        0.1453
     22 H         142.0233  137.0903  165.2827 H       1  UNL1        0.1453
     23 N         143.3171  143.9838  161.7731 N.pl3   1  UNL1       -0.3170
     24 H         144.1768  144.4202  161.5739 H       1  UNL1        0.1482
     25 C         142.0354  144.5979  161.2936 C.3     1  UNL1        0.0895
     26 C         141.5600  144.3444  159.8937 C.3     1  UNL1        0.0530
     27 C         140.2782  144.9586  159.4141 C.3     1  UNL1        0.1440
     28 O         139.4719  145.8262  160.3345 O.3     1  UNL1       -0.3522
     29 C         139.9473  146.0797  161.7344 C.3     1  UNL1        0.1592
     30 C         141.2291  145.4656  162.2139 C.3     1  UNL1        0.0990
     31 N         141.7045  145.7191  163.6138 N.3     1  UNL1       -0.3189
     32 H         142.5851  145.2281  163.7680 H       1  UNL1        0.1189
     33 H         141.0064  145.3813  164.2764 H       1  UNL1        0.1189
@<TRIPOS>BOND
     1    16    17    1
     2    17     7    1
     3     7     8    2
     4     8     9    1
     5     9    10    2
     6    10    11    1
     7    11    12    2
     8    12    13    1
     9    13     1    1
    10     1     2   ar
    11     2     3   ar
    12     3    23    1
    13    25    23    1
    14    25    26    1
    15    26    27    1
    16    27    28    1
    17    28    29    1
    18    29    30    1
    19    30    31    1
    20     3     4   ar
    21     4     5   ar
    22     5     6   ar
    23     6    18    1
    24    18    19   am
    25    18    20    2
    26    13    14    2
    27    14    15    1
    28    15     7    1
    29    15    11    1
    30     6     1   ar
    31    30    25    1
    32    23    24    1
    33    31    32    1
    34    31    33    1
    35    19    21    1
    36    19    22    1
@<TRIPOS>MOLECULE
*****
 33 36 0 0 0
SMALL
GASTEIGER

@<TRIPOS>ATOM
      1 C         139.9179  140.3075  164.9484 C.ar    1  UNL1        0.1220
      2 N         140.3427  140.4384  166.3810 N.ar    1  UNL1       -0.2261
      3 C         139.5163  139.8175  167.4681 C.ar    1  UNL1        0.1479
      4 C         138.2652  139.0658  167.1225 C.ar    1  UNL1        0.1330
      5 N         137.8404  138.9349  165.6899 N.ar    1  UNL1       -0.2348
      6 C         138.6668  139.5557  164.6029 C.ar    1  UNL1        0.1533
      7 C         143.9554  141.7471  161.7923 C.2     1  UNL1        0.1255
      8 C         144.0591  142.6220  160.5784 C.2     1  UNL1        0.0331
      9 C         142.8352  143.2965  160.0333 C.2     1  UNL1        0.0040
     10 C         141.5076  143.0961  160.7021 C.2     1  UNL1        0.0155
     11 C         141.4039  142.2212  161.9161 C.2     1  UNL1        0.0699
     12 N         140.2399  141.8391  162.7815 N.2     1  UNL1       -0.2477
     13 C         140.7443  140.9284  163.8614 C.2     1  UNL1        0.0967
     14 C         142.2201  140.7477  163.6634 C.2     1  UNL1        0.0077
     15 C         142.6278  141.5466  162.4612 C.3     1  UNL1        0.1203
     16 C         145.8282  141.5914  163.5862 C.3     1  UNL1        0.2520
     17 O         145.1793  141.0725  162.3374 O.2     1  UNL1       -0.4750
     18 C         138.2419  139.4248  163.1702 C.2     1  UNL1        0.2621
     19 N         137.3743  140.4772  162.5461 N.am    1  UNL1       -0.3240
     20 O         138.6848  138.2414  162.3618 O.2     1  UNL1       -0.2687
     21 H         137.0837  141.2539  163.0767 H       1  UNL1        0.1453
     22 H         137.0955  140.3913  161.6058 H       1  UNL1        0.1453
     23 N         139.9412  139.9485  168.9007 N.pl3   1  UNL1       -0.3170
     24 H         139.5722  139.3401  169.5812 H       1  UNL1        0.1482
     25 C         140.9282  141.0063  169.2967 C.3     1  UNL1        0.0895
     26 C         140.4552  142.3963  169.6034 C.3     1  UNL1        0.0530
     27 C         141.4424  143.4541  169.9993 C.3     1  UNL1        0.1440
     28 O         142.9023  143.1219  170.0885 O.3     1  UNL1       -0.3522
     29 C         143.3753  141.7319  169.7818 C.3     1  UNL1        0.1592
     30 C         142.3883  140.6741  169.3858 C.3     1  UNL1        0.0990
     31 N         142.8613  139.2840  169.0791 N.3     1  UNL1       -0.3189
     32 H         142.0627  138.7004  168.8300 H       1  UNL1        0.1189
     33 H         143.3248  138.8938  169.8996 H       1  UNL1        0.1189
@<TRIPOS>BOND
     1    16    17    1
     2    17     7    1
     3     7     8    2
     4     8     9    1
     5     9    10    2
     6    10    11    1
     7    11    12    2
     8    12    13    1
     9    13     1    1
    10     1     2   ar
    11     2     3   ar
    12     3    23    1
    13    25    23    1
    14    25    26    1
    15    26    27    1
    16    27    28    1
    17    28    29    1
    18    29    30    1
    19    30    31    1
    20     3     4   ar
    21     4     5   ar
    22     5     6   ar
    23     6    18    1
    24    18    19   am
    25    18    20    2
    26    13    14    2
    27    14    15    1
    28    15     7    1
    29    15    11    1
    30     6     1   ar
    31    30    25    1
    32    23    24    1
    33    31    32    1
    34    31    33    1
    35    19    21    1
    36    19    22    1
@<TRIPOS>MOLECULE
*****
 33 36 0 0 0
SMALL
GASTEIGER

@<TRIPOS>ATOM
      1 C         139.2357  141.1110  165.3356 C.ar    1  UNL1        0.1220
      2 N         139.7945  141.1722  166.7262 N.ar    1  UNL1       -0.2261
      3 C         139.4458  140.1062  167.7223 C.ar    1  UNL1        0.1479
      4 C         138.5383  138.9790  167.3276 C.ar    1  UNL1        0.1330
      5 N         137.9796  138.9177  165.9369 N.ar    1  UNL1       -0.2348
      6 C         138.3283  139.9837  164.9409 C.ar    1  UNL1        0.1533
      7 C         141.6634  143.9849  161.5698 C.2     1  UNL1        0.1255
      8 C         141.3452  145.2859  160.8945 C.2     1  UNL1        0.0331
      9 C         140.1047  146.0416  161.2690 C.2     1  UNL1        0.0040
     10 C         139.1825  145.4963  162.3188 C.2     1  UNL1        0.0155
     11 C         139.5008  144.1953  162.9941 C.2     1  UNL1        0.0699
     12 N         138.7859  143.4149  164.0571 N.2     1  UNL1       -0.2477
     13 C         139.5844  142.1770  164.3396 C.2     1  UNL1        0.0967
     14 C         140.7929  142.1922  163.4511 C.2     1  UNL1        0.0077
     15 C         140.7412  143.4396  162.6196 C.3     1  UNL1        0.1203
     16 C         144.1498  143.3784  162.0171 C.3     1  UNL1        0.2520
     17 O         142.9039  143.2293  161.1953 O.2     1  UNL1       -0.4750
     18 C         137.7695  139.9224  163.5502 C.2     1  UNL1        0.2621
     19 N         136.8703  141.0158  163.0543 N.am    1  UNL1       -0.3240
     20 O         138.1099  138.7677  162.6554 O.2     1  UNL1       -0.2687
     21 H         136.6469  141.7737  163.6416 H       1  UNL1        0.1453
     22 H         136.5036  140.9756  162.1416 H       1  UNL1        0.1453
     23 N         140.0046  140.1675  169.1130 N.pl3   1  UNL1       -0.3170
     24 H         139.6965  139.5287  169.7959 H       1  UNL1        0.1482
     25 C         141.0327  141.2020  169.4632 C.3     1  UNL1        0.0895
     26 C         140.6019  142.5802  169.8691 C.3     1  UNL1        0.0530
     27 C         141.6301  143.6148  170.2194 C.3     1  UNL1        0.1440
     28 O         143.0891  143.2710  170.1638 O.3     1  UNL1       -0.3522
     29 C         143.5199  141.8927  169.7578 C.3     1  UNL1        0.1592
     30 C         142.4918  140.8582  169.4076 C.3     1  UNL1        0.0990
     31 N         142.9226  139.4800  169.0017 N.3     1  UNL1       -0.3189
     32 H         142.0997  138.9119  168.8006 H       1  UNL1        0.1189
     33 H         143.4538  139.0525  169.7604 H       1  UNL1        0.1189
@<TRIPOS>BOND
     1    16    17    1
     2    17     7    1
     3     7     8    2
     4     8     9    1
     5     9    10    2
     6    10    11    1
     7    11    12    2
     8    12    13    1
     9    13     1    1
    10     1     2   ar
    11     2     3   ar
    12     3    23    1
    13    25    23    1
    14    25    26    1
    15    26    27    1
    16    27    28    1
    17    28    29    1
    18    29    30    1
    19    30    31    1
    20     3     4   ar
    21     4     5   ar
    22     5     6   ar
    23     6    18    1
    24    18    19   am
    25    18    20    2
    26    13    14    2
    27    14    15    1
    28    15     7    1
    29    15    11    1
    30     6     1   ar
    31    30    25    1
    32    23    24    1
    33    31    32    1
    34    31    33    1
    35    19    21    1
    36    19    22    1
@<TRIPOS>MOLECULE
*****
 33 36 0 0 0
SMALL
GASTEIGER

@<TRIPOS>ATOM
      1 C         142.3986  140.6017  165.1841 C.ar    1  UNL1        0.1220
      2 N         142.3126  140.4979  166.6780 N.ar    1  UNL1       -0.2261
      3 C         142.9558  139.3437  167.3880 C.ar    1  UNL1        0.1479
      4 C         143.6851  138.2932  166.6041 C.ar    1  UNL1        0.1330
      5 N         143.7711  138.3970  165.1102 N.ar    1  UNL1       -0.2348
      6 C         143.1279  139.5512  164.4002 C.ar    1  UNL1        0.1533
      7 C         138.8816  143.8358  162.8377 C.2     1  UNL1        0.1255
      8 C         138.9880  145.1833  162.1875 C.2     1  UNL1        0.0331
      9 C         140.3149  145.8791  162.1166 C.2     1  UNL1        0.0040
     10 C         141.5354  145.2275  162.6960 C.2     1  UNL1        0.0155
     11 C         141.4290  143.8800  163.3462 C.2     1  UNL1        0.0699
     12 N         142.4508  142.9973  163.9995 N.2     1  UNL1       -0.2477
     13 C         141.7554  141.7559  164.4742 C.2     1  UNL1        0.0967
     14 C         140.3038  141.8714  164.1142 C.2     1  UNL1        0.0077
     15 C         140.1021  143.1841  163.4171 C.3     1  UNL1        0.1203
     16 C         137.4251  141.7221  162.4363 C.3     1  UNL1        0.2520
     17 O         137.5546  143.1399  162.9086 O.2     1  UNL1       -0.4750
     18 C         143.2139  139.6549  162.9062 C.2     1  UNL1        0.2621
     19 N         144.5160  140.0125  162.2530 N.am    1  UNL1       -0.3240
     20 O         141.9979  139.4010  162.0655 O.2     1  UNL1       -0.2687
     21 H         145.3141  140.1791  162.8048 H       1  UNL1        0.1453
     22 H         144.5725  140.0805  161.2725 H       1  UNL1        0.1453
     23 N         142.8697  139.2400  168.8820 N.pl3   1  UNL1       -0.3170
     24 H         143.0195  138.3735  169.3247 H       1  UNL1        0.1482
     25 C         142.5554  140.4564  169.7014 C.3     1  UNL1        0.0895
     26 C         143.4450  141.6618  169.6261 C.3     1  UNL1        0.0530
     27 C         143.1306  142.8783  170.4455 C.3     1  UNL1        0.1440
     28 O         141.9266  142.8894  171.3402 O.3     1  UNL1       -0.3522
     29 C         141.0371  141.6840  171.4154 C.3     1  UNL1        0.1592
     30 C         141.3514  140.4675  170.5960 C.3     1  UNL1        0.0990
     31 N         140.4618  139.2621  170.6713 N.3     1  UNL1       -0.3189
     32 H         140.8222  138.5345  170.0539 H       1  UNL1        0.1189
     33 H         139.5179  139.5175  170.3811 H       1  UNL1        0.1189
@<TRIPOS>BOND
     1    16    17    1
     2    17     7    1
     3     7     8    2
     4     8     9    1
     5     9    10    2
     6    10    11    1
     7    11    12    2
     8    12    13    1
     9    13     1    1
    10     1     2   ar
    11     2     3   ar
    12     3    23    1
    13    25    23    1
    14    25    26    1
    15    26    27    1
    16    27    28    1
    17    28    29    1
    18    29    30    1
    19    30    31    1
    20     3     4   ar
    21     4     5   ar
    22     5     6   ar
    23     6    18    1
    24    18    19   am
    25    18    20    2
    26    13    14    2
    27    14    15    1
    28    15     7    1
    29    15    11    1
    30     6     1   ar
    31    30    25    1
    32    23    24    1
    33    31    32    1
    34    31    33    1
    35    19    21    1
    36    19    22    1
@<TRIPOS>MOLECULE
*****
 33 36 0 0 0
SMALL
GASTEIGER

@<TRIPOS>ATOM
      1 C         139.6999  140.6067  165.1950 C.ar    1  UNL1        0.1220
      2 N         140.2830  140.6108  166.5770 N.ar    1  UNL1       -0.2261
      3 C         139.5877  139.8792  167.6866 C.ar    1  UNL1        0.1479
      4 C         138.3092  139.1435  167.4143 C.ar    1  UNL1        0.1330
      5 N         137.7261  139.1394  166.0323 N.ar    1  UNL1       -0.2348
      6 C         138.4214  139.8710  164.9227 C.ar    1  UNL1        0.1533
      7 C         141.4617  144.3868  161.8873 C.2     1  UNL1        0.1255
      8 C         142.3667  144.3758  160.6911 C.2     1  UNL1        0.0331
      9 C         142.9723  143.0867  160.2206 C.2     1  UNL1        0.0040
     10 C         142.6729  141.8085  160.9463 C.2     1  UNL1        0.0155
     11 C         141.7680  141.8195  162.1425 C.2     1  UNL1        0.0699
     12 N         141.2938  140.7254  163.0525 N.2     1  UNL1       -0.2477
     13 C         140.3952  141.3383  164.0854 C.2     1  UNL1        0.0967
     14 C         140.3140  142.8113  163.8137 C.2     1  UNL1        0.0077
     15 C         141.1624  143.1087  162.6130 C.3     1  UNL1        0.1203
     16 C         139.5998  146.1911  161.7205 C.3     1  UNL1        0.2520
     17 O         140.8562  145.6760  162.3578 O.2     1  UNL1       -0.4750
     18 C         137.8382  139.8669  163.5407 C.2     1  UNL1        0.2621
     19 N         136.9749  141.0067  163.0875 N.am    1  UNL1       -0.3240
     20 O         138.1183  138.7228  162.6119 O.2     1  UNL1       -0.2687
     21 H         136.7910  141.7576  163.6972 H       1  UNL1        0.1453
     22 H         136.5921  141.0040  162.1805 H       1  UNL1        0.1453
     23 N         140.1709  139.8834  169.0686 N.pl3   1  UNL1       -0.3170
     24 H         140.1437  139.0661  169.6169 H       1  UNL1        0.1482
     25 C         140.7956  141.1327  169.6153 C.3     1  UNL1        0.0895
     26 C         140.1027  142.4526  169.4486 C.3     1  UNL1        0.0530
     27 C         140.7274  143.7020  169.9953 C.3     1  UNL1        0.1440
     28 O         142.0449  143.6314  170.7088 O.3     1  UNL1       -0.3522
     29 C         142.7378  142.3115  170.8755 C.3     1  UNL1        0.1592
     30 C         142.1132  141.0622  170.3288 C.3     1  UNL1        0.0990
     31 N         142.8061  139.7423  170.4956 N.3     1  UNL1       -0.3189
     32 H         142.2442  139.0068  170.0669 H       1  UNL1        0.1189
     33 H         142.9251  139.5439  171.4890 H       1  UNL1        0.1189
@<TRIPOS>BOND
     1    16    17    1
     2    17     7    1
     3     7     8    2
     4     8     9    1
     5     9    10    2
     6    10    11    1
     7    11    12    2
     8    12    13    1
     9    13     1    1
    10     1     2   ar
    11     2     3   ar
    12     3    23    1
    13    25    23    1
    14    25    26    1
    15    26    27    1
    16    27    28    1
    17    28    29    1
    18    29    30    1
    19    30    31    1
    20     3     4   ar
    21     4     5   ar
    22     5     6   ar
    23     6    18    1
    24    18    19   am
    25    18    20    2
    26    13    14    2
    27    14    15    1
    28    15     7    1
    29    15    11    1
    30     6     1   ar
    31    30    25    1
    32    23    24    1
    33    31    32    1
    34    31    33    1
    35    19    21    1
    36    19    22    1
@<TRIPOS>MOLECULE
*****
 33 36 0 0 0
SMALL
GASTEIGER

@<TRIPOS>ATOM
      1 C         142.1580  137.9719  159.2311 C.ar    1  UNL1        0.1220
      2 N         143.0335  137.0437  158.4426 N.ar    1  UNL1       -0.2261
      3 C         142.8162  136.8799  156.9675 C.ar    1  UNL1        0.1479
      4 C         141.7234  137.6442  156.2809 C.ar    1  UNL1        0.1330
      5 N         140.8479  138.5725  157.0694 N.ar    1  UNL1       -0.2348
      6 C         141.0652  138.7363  158.5446 C.ar    1  UNL1        0.1533
      7 C         144.1317  139.3384  163.9821 C.2     1  UNL1        0.1255
      8 C         143.7029  139.0760  165.3953 C.2     1  UNL1        0.0331
      9 C         142.4691  138.2673  165.6669 C.2     1  UNL1        0.0040
     10 C         141.6640  137.7211  164.5252 C.2     1  UNL1        0.0155
     11 C         142.0928  137.9836  163.1120 C.2     1  UNL1        0.0699
     12 N         141.5048  137.5779  161.7930 N.2     1  UNL1       -0.2477
     13 C         142.3753  138.1358  160.7062 C.2     1  UNL1        0.0967
     14 C         143.5012  138.8863  161.3536 C.2     1  UNL1        0.0077
     15 C         143.3266  138.7922  162.8405 C.3     1  UNL1        0.1203
     16 C         145.3511  141.6318  163.9237 C.3     1  UNL1        0.2520
     17 O         145.3655  140.1471  163.7105 O.2     1  UNL1       -0.4750
     18 C         140.1896  139.6646  159.3331 C.2     1  UNL1        0.2621
     19 N         139.0268  139.1207  160.1089 N.am    1  UNL1       -0.3240
     20 O         140.4769  141.1368  159.3457 O.2     1  UNL1       -0.2687
     21 H         138.8382  138.1545  160.1006 H       1  UNL1        0.1453
     22 H         138.4521  139.7300  160.6264 H       1  UNL1        0.1453
     23 N         143.6918  135.9516  156.1790 N.pl3   1  UNL1       -0.3170
     24 H         144.5770  136.2528  155.8708 H       1  UNL1        0.1482
     25 C         143.2187  134.5643  155.8600 C.3     1  UNL1        0.0895
     26 C         142.7467  134.2327  154.4754 C.3     1  UNL1        0.0530
     27 C         142.2736  132.8454  154.1565 C.3     1  UNL1        0.1440
     28 O         142.2726  131.7898  155.2222 O.3     1  UNL1       -0.3522
     29 C         142.7446  132.1215  156.6068 C.3     1  UNL1        0.1592
     30 C         143.2177  133.5087  156.9257 C.3     1  UNL1        0.0990
     31 N         143.6897  133.8403  158.3104 N.3     1  UNL1       -0.3189
     32 H         143.9722  134.8197  158.3478 H       1  UNL1        0.1189
     33 H         144.4847  133.2478  158.5496 H       1  UNL1        0.1189
@<TRIPOS>BOND
     1    16    17    1
     2    17     7    1
     3     7     8    2
     4     8     9    1
     5     9    10    2
     6    10    11    1
     7    11    12    2
     8    12    13    1
     9    13     1    1
    10     1     2   ar
    11     2     3   ar
    12     3    23    1
    13    25    23    1
    14    25    26    1
    15    26    27    1
    16    27    28    1
    17    28    29    1
    18    29    30    1
    19    30    31    1
    20     3     4   ar
    21     4     5   ar
    22     5     6   ar
    23     6    18    1
    24    18    19   am
    25    18    20    2
    26    13    14    2
    27    14    15    1
    28    15     7    1
    29    15    11    1
    30     6     1   ar
    31    30    25    1
    32    23    24    1
    33    31    32    1
    34    31    33    1
    35    19    21    1
    36    19    22    1
@<TRIPOS>MOLECULE
*****
 33 36 0 0 0
SMALL
GASTEIGER

@<TRIPOS>ATOM
      1 C         142.4582  141.3030  164.5258 C.ar    1  UNL1        0.1220
      2 N         142.5124  142.5869  163.7520 N.ar    1  UNL1       -0.2261
      3 C         143.2238  142.6378  162.4324 C.ar    1  UNL1        0.1479
      4 C         143.8810  141.4049  161.8866 C.ar    1  UNL1        0.1330
      5 N         143.8269  140.1211  162.6604 N.ar    1  UNL1       -0.2348
      6 C         143.1155  140.0701  163.9800 C.ar    1  UNL1        0.1533
      7 C         139.1724  140.0136  168.5101 C.2     1  UNL1        0.1255
      8 C         138.9881  140.5275  169.9072 C.2     1  UNL1        0.0331
      9 C         139.8518  141.6434  170.4159 C.2     1  UNL1        0.0040
     10 C         140.8997  142.2455  169.5275 C.2     1  UNL1        0.0155
     11 C         141.0839  141.7316  168.1304 C.2     1  UNL1        0.0699
     12 N         142.0274  142.1249  167.0326 N.2     1  UNL1       -0.2477
     13 C         141.7468  141.2521  165.8454 C.2     1  UNL1        0.0967
     14 C         140.6300  140.3193  166.2095 C.2     1  UNL1        0.0077
     15 C         140.2203  140.6157  167.6217 C.3     1  UNL1        0.1203
     16 C         137.8263  138.9103  166.5812 C.3     1  UNL1        0.2520
     17 O         138.3087  138.8977  168.0014 O.2     1  UNL1       -0.4750
     18 C         143.0614  138.7862  164.7537 C.2     1  UNL1        0.2621
     19 N         144.0312  138.5429  165.8719 N.am    1  UNL1       -0.3240
     20 O         142.0374  137.7456  164.4093 O.2     1  UNL1       -0.2687
     21 H         144.7032  139.2259  166.0979 H       1  UNL1        0.1453
     22 H         143.9956  137.7003  166.3797 H       1  UNL1        0.1453
     23 N         143.2779  143.9217  161.6586 N.pl3   1  UNL1       -0.3170
     24 H         144.1470  144.3350  161.4509 H       1  UNL1        0.1482
     25 C         142.0079  144.5760  161.2014 C.3     1  UNL1        0.0895
     26 C         141.5134  144.3576  159.8022 C.3     1  UNL1        0.0530
     27 C         140.2433  145.0119  159.3450 C.3     1  UNL1        0.1440
     28 O         139.4679  145.8845  160.2870 O.3     1  UNL1       -0.3522
     29 C         139.9625  146.1028  161.6862 C.3     1  UNL1        0.1592
     30 C         141.2325  145.4486  162.1434 C.3     1  UNL1        0.0990
     31 N         141.7270  145.6669  163.5426 N.3     1  UNL1       -0.3189
     32 H         142.5962  145.1512  163.6803 H       1  UNL1        0.1189
     33 H         141.0267  145.3361  164.2063 H       1  UNL1        0.1189
@<TRIPOS>BOND
     1    16    17    1
     2    17     7    1
     3     7     8    2
     4     8     9    1
     5     9    10    2
     6    10    11    1
     7    11    12    2
     8    12    13    1
     9    13     1    1
    10     1     2   ar
    11     2     3   ar
    12     3    23    1
    13    25    23    1
    14    25    26    1
    15    26    27    1
    16    27    28    1
    17    28    29    1
    18    29    30    1
    19    30    31    1
    20     3     4   ar
    21     4     5   ar
    22     5     6   ar
    23     6    18    1
    24    18    19   am
    25    18    20    2
    26    13    14    2
    27    14    15    1
    28    15     7    1
    29    15    11    1
    30     6     1   ar
    31    30    25    1
    32    23    24    1
    33    31    32    1
    34    31    33    1
    35    19    21    1
    36    19    22    1
@<TRIPOS>MOLECULE
*****
 33 36 0 0 0
SMALL
GASTEIGER

@<TRIPOS>ATOM
      1 C         139.3479  141.1274  165.2875 C.ar    1  UNL1        0.1220
      2 N         139.4594  142.4149  164.5261 N.ar    1  UNL1       -0.2261
      3 C         138.6805  142.6066  163.2586 C.ar    1  UNL1        0.1479
      4 C         137.7902  141.5108  162.7524 C.ar    1  UNL1        0.1330
      5 N         137.6787  140.2232  163.5138 N.ar    1  UNL1       -0.2348
      6 C         138.4576  140.0315  164.7813 C.ar    1  UNL1        0.1533
      7 C         141.4807  141.7835  170.1202 C.2     1  UNL1        0.1255
      8 C         142.4148  140.9631  170.9593 C.2     1  UNL1        0.0331
      9 C         142.9340  139.6542  170.4423 C.2     1  UNL1        0.0040
     10 C         142.5191  139.1658  169.0862 C.2     1  UNL1        0.0155
     11 C         141.5850  139.9862  168.2470 C.2     1  UNL1        0.0699
     12 N         141.0047  139.7641  166.8818 N.2     1  UNL1       -0.2477
     13 C         140.1268  140.9357  166.5550 C.2     1  UNL1        0.0967
     14 C         140.1646  141.8819  167.7183 C.2     1  UNL1        0.0077
     15 C         141.0658  141.2951  168.7640 C.3     1  UNL1        0.1203
     16 C         139.5150  143.2313  171.0088 C.3     1  UNL1        0.2520
     17 O         140.9615  143.0924  170.6372 O.2     1  UNL1       -0.4750
     18 C         138.3461  138.7438  165.5426 C.2     1  UNL1        0.2621
     19 N         139.1761  137.5608  165.1410 N.am    1  UNL1       -0.3240
     20 O         137.4045  138.6393  166.7056 O.2     1  UNL1       -0.2687
     21 H         139.7941  137.6294  164.3777 H       1  UNL1        0.1453
     22 H         139.1029  136.7157  165.6406 H       1  UNL1        0.1453
     23 N         138.7920  143.8943  162.4973 N.pl3   1  UNL1       -0.3170
     24 H         138.1449  144.6187  162.6579 H       1  UNL1        0.1482
     25 C         139.8893  144.0782  161.4913 C.3     1  UNL1        0.0895
     26 C         140.8038  142.9358  161.1617 C.3     1  UNL1        0.0530
     27 C         141.9012  143.1198  160.1557 C.3     1  UNL1        0.1440
     28 O         142.0840  144.4461  159.4793 O.3     1  UNL1       -0.3522
     29 C         141.1695  145.5885  159.8089 C.3     1  UNL1        0.1592
     30 C         140.0722  145.4046  160.8149 C.3     1  UNL1        0.0990
     31 N         139.1577  146.5469  161.1445 N.3     1  UNL1       -0.3189
     32 H         138.4765  146.2469  161.8419 H       1  UNL1        0.1189
     33 H         138.6702  146.8467  160.3002 H       1  UNL1        0.1189
@<TRIPOS>BOND
     1    16    17    1
     2    17     7    1
     3     7     8    2
     4     8     9    1
     5     9    10    2
     6    10    11    1
     7    11    12    2
     8    12    13    1
     9    13     1    1
    10     1     2   ar
    11     2     3   ar
    12     3    23    1
    13    25    23    1
    14    25    26    1
    15    26    27    1
    16    27    28    1
    17    28    29    1
    18    29    30    1
    19    30    31    1
    20     3     4   ar
    21     4     5   ar
    22     5     6   ar
    23     6    18    1
    24    18    19   am
    25    18    20    2
    26    13    14    2
    27    14    15    1
    28    15     7    1
    29    15    11    1
    30     6     1   ar
    31    30    25    1
    32    23    24    1
    33    31    32    1
    34    31    33    1
    35    19    21    1
    36    19    22    1
@<TRIPOS>MOLECULE
*****
 33 36 0 0 0
SMALL
GASTEIGER

@<TRIPOS>ATOM
      1 C         140.2176  140.0500  165.4118 C.ar    1  UNL1        0.1220
      2 N         140.1759  140.2828  166.8930 N.ar    1  UNL1       -0.2261
      3 C         139.0984  139.6488  167.7218 C.ar    1  UNL1        0.1479
      4 C         138.0624  138.7821  167.0695 C.ar    1  UNL1        0.1330
      5 N         138.1041  138.5494  165.5883 N.ar    1  UNL1       -0.2348
      6 C         139.1817  139.1833  164.7594 C.ar    1  UNL1        0.1533
      7 C         143.0770  143.4681  162.5006 C.2     1  UNL1        0.1255
      8 C         144.4150  143.3873  161.8274 C.2     1  UNL1        0.0331
      9 C         145.2245  142.1276  161.9165 C.2     1  UNL1        0.0040
     10 C         144.6962  140.9489  162.6788 C.2     1  UNL1        0.0155
     11 C         143.3582  141.0297  163.3521 C.2     1  UNL1        0.0699
     12 N         142.5835  140.0375  164.1679 N.2     1  UNL1       -0.2477
     13 C         141.2952  140.6839  164.5830 C.2     1  UNL1        0.0967
     14 C         141.2736  142.0756  164.0237 C.2     1  UNL1        0.0077
     15 C         142.5486  142.2893  163.2629 C.3     1  UNL1        0.1203
     16 C         141.0879  144.7974  161.4875 C.3     1  UNL1        0.2520
     17 O         142.2674  144.7277  162.4115 O.2     1  UNL1       -0.4750
     18 C         139.2233  138.9505  163.2781 C.2     1  UNL1        0.2621
     19 N         140.2898  138.0779  162.6857 N.am    1  UNL1       -0.3240
     20 O         138.1983  139.5904  162.3893 O.2     1  UNL1       -0.2687
     21 H         140.9625  137.6579  163.2691 H       1  UNL1        0.1453
     22 H         140.3171  137.9251  161.7135 H       1  UNL1        0.1453
     23 N         139.0568  139.8816  169.2031 N.pl3   1  UNL1       -0.3170
     24 H         138.4206  139.3801  169.7626 H       1  UNL1        0.1482
     25 C         139.9845  140.8785  169.8320 C.3     1  UNL1        0.0895
     26 C         139.6001  142.3272  169.8916 C.3     1  UNL1        0.0530
     27 C         140.5278  143.3241  170.5205 C.3     1  UNL1        0.1440
     28 O         141.8400  142.8723  171.0898 O.3     1  UNL1       -0.3522
     29 C         142.2244  141.4236  171.0303 C.3     1  UNL1        0.1592
     30 C         141.2967  140.4267  170.4014 C.3     1  UNL1        0.0990
     31 N         141.6811  138.9781  170.3418 N.3     1  UNL1       -0.3189
     32 H         140.9392  138.4479  169.8848 H       1  UNL1        0.1189
     33 H         141.8188  138.6236  171.2883 H       1  UNL1        0.1189
@<TRIPOS>BOND
     1    16    17    1
     2    17     7    1
     3     7     8    2
     4     8     9    1
     5     9    10    2
     6    10    11    1
     7    11    12    2
     8    12    13    1
     9    13     1    1
    10     1     2   ar
    11     2     3   ar
    12     3    23    1
    13    25    23    1
    14    25    26    1
    15    26    27    1
    16    27    28    1
    17    28    29    1
    18    29    30    1
    19    30    31    1
    20     3     4   ar
    21     4     5   ar
    22     5     6   ar
    23     6    18    1
    24    18    19   am
    25    18    20    2
    26    13    14    2
    27    14    15    1
    28    15     7    1
    29    15    11    1
    30     6     1   ar
    31    30    25    1
    32    23    24    1
    33    31    32    1
    34    31    33    1
    35    19    21    1
    36    19    22    1
