@<TRIPOS>MOLECULE
*****
 19 20 0 0 0
SMALL
GASTEIGER

@<TRIPOS>ATOM
      1 C         140.4985  140.4358  167.2391 C.ar    1  UNL1        0.0511
      2 C         141.8781  139.9668  166.8831 C.ar    1  UNL1        0.0163
      3 C         142.7552  139.3514  167.9329 C.ar    1  UNL1        0.0253
      4 C         142.2528  139.2052  169.3386 C.ar    1  UNL1        0.1365
      5 C         140.8732  139.6742  169.6946 C.ar    1  UNL1        0.1541
      6 O         140.3707  139.5279  171.1004 O.3     1  UNL1       -0.5039
      7 C         139.9961  140.2895  168.6448 C.ar    1  UNL1        0.0527
      8 H         140.9186  139.1435  171.7561 H       1  UNL1        0.2923
      9 C         138.5497  140.2321  165.5330 C.3     1  UNL1        0.1122
     10 N         139.6214  141.0511  166.1893 N.pl3   1  UNL1       -0.3040
     11 C         139.8159  142.4854  165.7958 C.3     1  UNL1        0.1122
     12 N         143.1299  138.5898  170.3884 N.2     1  UNL1       -0.1435
     13 N         143.6985  137.2175  170.1805 N.2     1  UNL1       -0.1284
     14 C         144.5757  136.6022  171.2303 C.ar    1  UNL1        0.1838
     15 C         144.4462  135.1434  171.5551 C.ar    1  UNL1        0.0406
     16 C         145.3234  134.5281  172.6049 C.ar    1  UNL1        0.0048
     17 C         146.3300  135.3715  173.3298 C.ar    1  UNL1        0.0208
     18 C         146.4594  136.8302  173.0050 C.ar    1  UNL1        0.1006
     19 N         145.5822  137.4455  171.9552 N.ar    1  UNL1       -0.2236
@<TRIPOS>BOND
     1     9    10    1
     2    10    11    1
     3    10     1    1
     4     1     2   ar
     5     2     3   ar
     6     3     4   ar
     7     4    12    1
     8    12    13    2
     9    13    14    1
    10    14    15   ar
    11    15    16   ar
    12    16    17   ar
    13    17    18   ar
    14    18    19   ar
    15     4     5   ar
    16     5     6    1
    17     5     7   ar
    18     7     1   ar
    19    19    14   ar
    20     6     8    1
@<TRIPOS>MOLECULE
*****
 19 20 0 0 0
SMALL
GASTEIGER

@<TRIPOS>ATOM
      1 C         140.3684  141.8977  167.2836 C.ar    1  UNL1        0.0511
      2 C         140.5220  142.3623  168.7015 C.ar    1  UNL1        0.0163
      3 C         139.8734  141.5963  169.8162 C.ar    1  UNL1        0.0253
      4 C         139.0712  140.3657  169.5129 C.ar    1  UNL1        0.1365
      5 C         138.9176  139.9011  168.0950 C.ar    1  UNL1        0.1541
      6 O         138.1153  138.6704  167.7917 O.3     1  UNL1       -0.5039
      7 C         139.5662  140.6671  166.9803 C.ar    1  UNL1        0.0527
      8 H         137.7101  138.1919  168.4880 H       1  UNL1        0.2923
      9 C         142.4662  142.4425  165.8509 C.3     1  UNL1        0.1122
     10 N         141.0171  142.6637  166.1689 N.pl3   1  UNL1       -0.3040
     11 C         140.2167  143.6509  165.3723 C.3     1  UNL1        0.1122
     12 N         138.4225  139.5997  170.6276 N.2     1  UNL1       -0.1435
     13 N         137.1191  138.8951  170.3942 N.2     1  UNL1       -0.1284
     14 C         136.4704  138.1291  171.5089 C.ar    1  UNL1        0.1838
     15 C         135.2329  138.6646  172.1660 C.ar    1  UNL1        0.0406
     16 C         134.5842  137.8986  173.2806 C.ar    1  UNL1        0.0048
     17 C         135.1732  136.5971  173.7382 C.ar    1  UNL1        0.0208
     18 C         136.4107  136.0617  173.0811 C.ar    1  UNL1        0.1006
     19 N         137.0593  136.8277  171.9664 N.ar    1  UNL1       -0.2236
@<TRIPOS>BOND
     1     9    10    1
     2    10    11    1
     3    10     1    1
     4     1     2   ar
     5     2     3   ar
     6     3     4   ar
     7     4    12    1
     8    12    13    2
     9    13    14    1
    10    14    15   ar
    11    15    16   ar
    12    16    17   ar
    13    17    18   ar
    14    18    19   ar
    15     4     5   ar
    16     5     6    1
    17     5     7   ar
    18     7     1   ar
    19    19    14   ar
    20     6     8    1
@<TRIPOS>MOLECULE
*****
 19 20 0 0 0
SMALL
GASTEIGER

@<TRIPOS>ATOM
      1 C         140.8718  141.7587  167.7018 C.ar    1  UNL1        0.0511
      2 C         139.9051  140.6797  167.3130 C.ar    1  UNL1        0.0163
      3 C         139.1472  139.9346  168.3715 C.ar    1  UNL1        0.0253
      4 C         139.3560  140.2685  169.8189 C.ar    1  UNL1        0.1365
      5 C         140.3227  141.3475  170.2077 C.ar    1  UNL1        0.1541
      6 O         140.5316  141.6815  171.6551 O.3     1  UNL1       -0.5039
      7 C         141.0806  142.0926  169.1492 C.ar    1  UNL1        0.0527
      8 H         140.0582  141.2161  172.3163 H       1  UNL1        0.2923
      9 C         140.8911  143.1682  165.5194 C.3     1  UNL1        0.1122
     10 N         141.6296  142.5038  166.6433 N.pl3   1  UNL1       -0.3040
     11 C         143.1260  142.5845  166.7086 C.3     1  UNL1        0.1122
     12 N         138.5982  139.5234  170.8774 N.2     1  UNL1       -0.1435
     13 N         137.3020  138.8493  170.5377 N.2     1  UNL1       -0.1284
     14 C         136.5442  138.1042  171.5962 C.ar    1  UNL1        0.1838
     15 C         135.2532  138.6567  172.1237 C.ar    1  UNL1        0.0406
     16 C         134.4953  137.9117  173.1822 C.ar    1  UNL1        0.0048
     17 C         135.0285  136.6140  173.7133 C.ar    1  UNL1        0.0208
     18 C         136.3194  136.0615  173.1858 C.ar    1  UNL1        0.1006
     19 N         137.0772  136.8066  172.1273 N.ar    1  UNL1       -0.2236
@<TRIPOS>BOND
     1     9    10    1
     2    10    11    1
     3    10     1    1
     4     1     2   ar
     5     2     3   ar
     6     3     4   ar
     7     4    12    1
     8    12    13    2
     9    13    14    1
    10    14    15   ar
    11    15    16   ar
    12    16    17   ar
    13    17    18   ar
    14    18    19   ar
    15     4     5   ar
    16     5     6    1
    17     5     7   ar
    18     7     1   ar
    19    19    14   ar
    20     6     8    1
@<TRIPOS>MOLECULE
*****
 19 20 0 0 0
SMALL
GASTEIGER

@<TRIPOS>ATOM
      1 C         139.1191  139.9142  160.5445 C.ar    1  UNL1        0.0511
      2 C         140.3206  139.7178  161.4208 C.ar    1  UNL1        0.0163
      3 C         140.2510  140.0663  162.8781 C.ar    1  UNL1        0.0253
      4 C         138.9800  140.6111  163.4591 C.ar    1  UNL1        0.1365
      5 C         137.7786  140.8075  162.5828 C.ar    1  UNL1        0.1541
      6 O         136.5075  141.3524  163.1639 O.3     1  UNL1       -0.5039
      7 C         137.8481  140.4590  161.1255 C.ar    1  UNL1        0.0527
      8 H         136.4640  141.5700  164.0742 H       1  UNL1        0.2923
      9 C         140.0408  138.4191  158.6301 C.3     1  UNL1        0.1122
     10 N         139.1887  139.5657  159.0872 N.pl3   1  UNL1       -0.3040
     11 C         138.4061  140.3639  158.0870 C.3     1  UNL1        0.1122
     12 N         138.9105  140.9596  164.9164 N.2     1  UNL1       -0.1435
     13 N         140.1605  140.9702  165.7455 N.2     1  UNL1       -0.1284
     14 C         140.0909  141.3186  167.2028 C.ar    1  UNL1        0.1838
     15 C         140.5340  142.6727  167.6721 C.ar    1  UNL1        0.0406
     16 C         140.4645  143.0212  169.1294 C.ar    1  UNL1        0.0048
     17 C         139.9518  142.0156  170.1174 C.ar    1  UNL1        0.0208
     18 C         139.5087  140.6616  169.6481 C.ar    1  UNL1        0.1006
     19 N         139.5783  140.3131  168.1908 N.ar    1  UNL1       -0.2236
@<TRIPOS>BOND
     1     9    10    1
     2    10    11    1
     3    10     1    1
     4     1     2   ar
     5     2     3   ar
     6     3     4   ar
     7     4    12    1
     8    12    13    2
     9    13    14    1
    10    14    15   ar
    11    15    16   ar
    12    16    17   ar
    13    17    18   ar
    14    18    19   ar
    15     4     5   ar
    16     5     6    1
    17     5     7   ar
    18     7     1   ar
    19    19    14   ar
    20     6     8    1
@<TRIPOS>MOLECULE
*****
 19 20 0 0 0
SMALL
GASTEIGER

@<TRIPOS>ATOM
      1 C         139.0612  140.0002  160.5228 C.ar    1  UNL1        0.0511
      2 C         140.2785  139.8293  161.3823 C.ar    1  UNL1        0.0163
      3 C         140.2208  140.1729  162.8413 C.ar    1  UNL1        0.0253
      4 C         138.9457  140.6874  163.4407 C.ar    1  UNL1        0.1365
      5 C         137.7283  140.8582  162.5812 C.ar    1  UNL1        0.1541
      6 O         136.4531  141.3727  163.1807 O.3     1  UNL1       -0.5039
      7 C         137.7861  140.5146  161.1222 C.ar    1  UNL1        0.0527
      8 H         136.4170  141.5873  164.0920 H       1  UNL1        0.2923
      9 C         138.3240  140.4546  158.0733 C.3     1  UNL1        0.1122
     10 N         139.1189  139.6566  159.0638 N.pl3   1  UNL1       -0.3040
     11 C         139.9716  138.5149  158.5953 C.3     1  UNL1        0.1122
     12 N         138.8879  141.0310  164.8997 N.2     1  UNL1       -0.1435
     13 N         140.0573  140.7272  165.7886 N.2     1  UNL1       -0.1284
     14 C         139.9996  141.0708  167.2476 C.ar    1  UNL1        0.1838
     15 C         139.4331  140.0869  168.2280 C.ar    1  UNL1        0.0406
     16 C         139.3753  140.4304  169.6870 C.ar    1  UNL1        0.0048
     17 C         139.8841  141.7580  170.1655 C.ar    1  UNL1        0.0208
     18 C         140.4505  142.7418  169.1852 C.ar    1  UNL1        0.1006
     19 N         140.5083  142.3982  167.7262 N.ar    1  UNL1       -0.2236
@<TRIPOS>BOND
     1     9    10    1
     2    10    11    1
     3    10     1    1
     4     1     2   ar
     5     2     3   ar
     6     3     4   ar
     7     4    12    1
     8    12    13    2
     9    13    14    1
    10    14    15   ar
    11    15    16   ar
    12    16    17   ar
    13    17    18   ar
    14    18    19   ar
    15     4     5   ar
    16     5     6    1
    17     5     7   ar
    18     7     1   ar
    19    19    14   ar
    20     6     8    1
@<TRIPOS>MOLECULE
*****
 19 20 0 0 0
SMALL
GASTEIGER

@<TRIPOS>ATOM
      1 C         141.0755  143.8903  163.5842 C.ar    1  UNL1        0.0511
      2 C         142.0850  143.3523  162.6139 C.ar    1  UNL1        0.0163
      3 C         142.1417  143.8907  161.2150 C.ar    1  UNL1        0.0253
      4 C         141.1890  144.9670  160.7864 C.ar    1  UNL1        0.1365
      5 C         140.1796  145.5050  161.7567 C.ar    1  UNL1        0.1541
      6 O         139.2268  146.5814  161.3281 O.3     1  UNL1       -0.5039
      7 C         140.1228  144.9666  163.1556 C.ar    1  UNL1        0.0527
      8 H         139.2622  146.9177  160.4543 H       1  UNL1        0.2923
      9 C         142.1626  142.5458  165.5235 C.3     1  UNL1        0.1122
     10 N         141.0188  143.3519  164.9831 N.pl3   1  UNL1       -0.3040
     11 C         139.8183  143.6195  165.8416 C.3     1  UNL1        0.1122
     12 N         141.2457  145.5054  159.3875 N.2     1  UNL1       -0.1435
     13 N         139.9773  145.7385  158.6216 N.2     1  UNL1       -0.1284
     14 C         140.0340  146.2769  157.2227 C.ar    1  UNL1        0.1838
     15 C         141.0182  145.7126  156.2412 C.ar    1  UNL1        0.0406
     16 C         141.0749  146.2510  154.8423 C.ar    1  UNL1        0.0048
     17 C         140.1475  147.3537  154.4248 C.ar    1  UNL1        0.0208
     18 C         139.1634  147.9178  155.4063 C.ar    1  UNL1        0.1006
     19 N         139.1067  147.3795  156.8052 N.ar    1  UNL1       -0.2236
@<TRIPOS>BOND
     1     9    10    1
     2    10    11    1
     3    10     1    1
     4     1     2   ar
     5     2     3   ar
     6     3     4   ar
     7     4    12    1
     8    12    13    2
     9    13    14    1
    10    14    15   ar
    11    15    16   ar
    12    16    17   ar
    13    17    18   ar
    14    18    19   ar
    15     4     5   ar
    16     5     6    1
    17     5     7   ar
    18     7     1   ar
    19    19    14   ar
    20     6     8    1
@<TRIPOS>MOLECULE
*****
 19 20 0 0 0
SMALL
GASTEIGER

@<TRIPOS>ATOM
      1 C         140.7239  146.0538  156.3519 C.ar    1  UNL1        0.0511
      2 C         141.9975  145.2654  156.2713 C.ar    1  UNL1        0.0163
      3 C         142.5421  144.5928  157.4964 C.ar    1  UNL1        0.0253
      4 C         141.8132  144.7085  158.8022 C.ar    1  UNL1        0.1365
      5 C         140.5396  145.4968  158.8829 C.ar    1  UNL1        0.1541
      6 O         139.8106  145.6126  160.1888 O.3     1  UNL1       -0.5039
      7 C         139.9950  146.1695  157.6578 C.ar    1  UNL1        0.0527
      8 H         140.1508  145.1924  160.9541 H       1  UNL1        0.2923
      9 C         138.9614  147.5962  155.2275 C.3     1  UNL1        0.1122
     10 N         140.1793  146.7264  155.1268 N.pl3   1  UNL1       -0.3040
     11 C         140.8525  146.5292  153.8010 C.3     1  UNL1        0.1122
     12 N         142.3578  144.0359  160.0274 N.2     1  UNL1       -0.1435
     13 N         142.2365  144.7025  161.3655 N.2     1  UNL1       -0.1284
     14 C         142.7811  144.0299  162.5907 C.ar    1  UNL1        0.1838
     15 C         143.6502  144.7962  163.5433 C.ar    1  UNL1        0.0406
     16 C         144.1948  144.1236  164.7685 C.ar    1  UNL1        0.0048
     17 C         143.8703  142.6846  165.0410 C.ar    1  UNL1        0.0208
     18 C         143.0013  141.9184  164.0883 C.ar    1  UNL1        0.1006
     19 N         142.4567  142.5910  162.8632 N.ar    1  UNL1       -0.2236
@<TRIPOS>BOND
     1     9    10    1
     2    10    11    1
     3    10     1    1
     4     1     2   ar
     5     2     3   ar
     6     3     4   ar
     7     4    12    1
     8    12    13    2
     9    13    14    1
    10    14    15   ar
    11    15    16   ar
    12    16    17   ar
    13    17    18   ar
    14    18    19   ar
    15     4     5   ar
    16     5     6    1
    17     5     7   ar
    18     7     1   ar
    19    19    14   ar
    20     6     8    1
@<TRIPOS>MOLECULE
*****
 19 20 0 0 0
SMALL
GASTEIGER

@<TRIPOS>ATOM
      1 C         138.6070  139.2145  164.1273 C.ar    1  UNL1        0.0511
      2 C         138.5788  138.0460  163.1873 C.ar    1  UNL1        0.0163
      3 C         138.1748  138.2441  161.7564 C.ar    1  UNL1        0.0253
      4 C         137.7990  139.6108  161.2655 C.ar    1  UNL1        0.1365
      5 C         137.8272  140.7793  162.2055 C.ar    1  UNL1        0.1541
      6 O         137.4515  142.1460  161.7147 O.3     1  UNL1       -0.5039
      7 C         138.2312  140.5811  163.6365 C.ar    1  UNL1        0.0527
      8 H         137.1991  142.2698  160.8208 H       1  UNL1        0.2923
      9 C         140.4405  139.2129  165.9681 C.3     1  UNL1        0.1122
     10 N         139.0110  139.0164  165.5582 N.pl3   1  UNL1       -0.3040
     11 C         137.9856  138.6217  166.5793 C.3     1  UNL1        0.1122
     12 N         137.3950  139.8089  159.8346 N.2     1  UNL1       -0.1435
     13 N         138.1038  140.8250  158.9889 N.2     1  UNL1       -0.1284
     14 C         137.6998  141.0231  157.5580 C.ar    1  UNL1        0.1838
     15 C         138.6229  141.7281  156.6088 C.ar    1  UNL1        0.0406
     16 C         138.2189  141.9263  155.1779 C.ar    1  UNL1        0.0048
     17 C         136.8918  141.4194  154.6962 C.ar    1  UNL1        0.0208
     18 C         135.9688  140.7144  155.6454 C.ar    1  UNL1        0.1006
     19 N         136.3728  140.5163  157.0763 N.ar    1  UNL1       -0.2236
@<TRIPOS>BOND
     1     9    10    1
     2    10    11    1
     3    10     1    1
     4     1     2   ar
     5     2     3   ar
     6     3     4   ar
     7     4    12    1
     8    12    13    2
     9    13    14    1
    10    14    15   ar
    11    15    16   ar
    12    16    17   ar
    13    17    18   ar
    14    18    19   ar
    15     4     5   ar
    16     5     6    1
    17     5     7   ar
    18     7     1   ar
    19    19    14   ar
    20     6     8    1
@<TRIPOS>MOLECULE
*****
 19 20 0 0 0
SMALL
GASTEIGER

@<TRIPOS>ATOM
      1 C         139.6394  138.1001  162.7376 C.ar    1  UNL1        0.0511
      2 C         140.7192  138.1548  161.6978 C.ar    1  UNL1        0.0163
      3 C         140.4008  138.6266  160.3100 C.ar    1  UNL1        0.0253
      4 C         139.0027  139.0438  159.9619 C.ar    1  UNL1        0.1365
      5 C         137.9230  138.9892  161.0017 C.ar    1  UNL1        0.1541
      6 O         136.5248  139.4064  160.6536 O.3     1  UNL1       -0.5039
      7 C         138.2413  138.5173  162.3895 C.ar    1  UNL1        0.0527
      8 H         136.3259  139.7011  159.7867 H       1  UNL1        0.2923
      9 C         141.3260  137.1020  164.4432 C.3     1  UNL1        0.1122
     10 N         139.9578  137.6283  164.1254 N.pl3   1  UNL1       -0.3040
     11 C         138.9080  137.6827  165.1953 C.3     1  UNL1        0.1122
     12 N         138.6844  139.5156  158.5741 N.2     1  UNL1       -0.1435
     13 N         137.6063  140.5358  158.3576 N.2     1  UNL1       -0.1284
     14 C         137.2879  141.0077  156.9698 C.ar    1  UNL1        0.1838
     15 C         137.1987  142.4766  156.6791 C.ar    1  UNL1        0.0406
     16 C         136.8803  142.9484  155.2913 C.ar    1  UNL1        0.0048
     17 C         136.6513  141.9513  154.1942 C.ar    1  UNL1        0.0208
     18 C         136.7405  140.4825  154.4850 C.ar    1  UNL1        0.1006
     19 N         137.0589  140.0107  155.8728 N.ar    1  UNL1       -0.2236
@<TRIPOS>BOND
     1     9    10    1
     2    10    11    1
     3    10     1    1
     4     1     2   ar
     5     2     3   ar
     6     3     4   ar
     7     4    12    1
     8    12    13    2
     9    13    14    1
    10    14    15   ar
    11    15    16   ar
    12    16    17   ar
    13    17    18   ar
    14    18    19   ar
    15     4     5   ar
    16     5     6    1
    17     5     7   ar
    18     7     1   ar
    19    19    14   ar
    20     6     8    1
