@<TRIPOS>MOLECULE
*****
 33 36 0 0 0
SMALL
GASTEIGER

@<TRIPOS>ATOM
      1 C         140.0283  138.1823  162.9936 C.2     1  UNL1        0.2257
      2 O         140.9292  136.9965  162.8139 O.2     1  UNL1       -0.2749
      3 N         139.4512  138.8744  161.7944 N.am    1  UNL1       -0.2760
      4 C         138.5502  140.0601  161.9742 C.3     1  UNL1        0.1149
      5 C         137.9732  140.7522  160.7751 C.3     1  UNL1        0.1141
      6 N         138.2971  140.2585  159.3961 N.pl3   1  UNL1       -0.2846
      7 C         139.1980  139.0728  159.2164 C.3     1  UNL1        0.1141
      8 C         139.7751  138.3807  160.4155 C.3     1  UNL1        0.1149
      9 C         140.5168  139.7785  164.9845 C.3     1  UNL1        0.0851
     10 C         140.1929  140.2722  166.3634 C.3     1  UNL1        0.0096
     11 C         139.0567  139.6634  167.1303 C.3     1  UNL1        0.0005
     12 C         138.2443  138.5609  166.5184 C.3     1  UNL1        0.0005
     13 C         138.5681  138.0672  165.1395 C.3     1  UNL1        0.0096
     14 C         139.7044  138.6760  164.3726 C.3     1  UNL1        0.0853
     15 N         143.0212  139.7771  164.2933 N.am    1  UNL1       -0.2959
     16 C         141.6531  140.3873  164.2175 C.2     1  UNL1        0.2231
     17 O         141.4212  141.6063  163.3747 O.2     1  UNL1       -0.2751
     18 H         143.1735  138.9770  164.8464 H       1  UNL1        0.1502
     19 C         144.1576  140.3859  163.5263 C.3     1  UNL1        0.1364
     20 C         145.3132  141.2823  163.1931 C.3     1  UNL1        0.0353
     21 C         144.6079  141.4255  164.5093 C.3     1  UNL1        0.0353
     22 N         144.0458  138.7294  161.0275 N.1     1  UNL1       -0.1943
     23 C         144.1017  139.5576  162.2769 C.1     1  UNL1        0.0896
     24 C         137.7200  140.9506  158.1969 C.ar    1  UNL1        0.1639
     25 N         136.7376  140.3630  157.2277 N.ar    1  UNL1       -0.2192
     26 C         136.4344  141.4011  156.1882 C.ar    1  UNL1        0.1711
     27 C         137.2296  142.6303  156.5150 C.ar    1  UNL1        0.1111
     28 CL        137.2301  143.9127  155.7369 Cl      1  UNL1       -0.0735
     29 S         138.0241  142.3519  157.7564 S.2     1  UNL1       -0.0401
     30 C         135.5002  141.2384  155.0260 C.3     1  UNL1        0.4362
     31 F         134.5661  141.0758  153.8637 F       1  UNL1       -0.1644
     32 F         136.6652  141.2902  154.0823 F       1  UNL1       -0.1644
     33 F         134.3353  141.1866  155.9696 F       1  UNL1       -0.1644
@<TRIPOS>BOND
     1    22    23    3
     2    23    19    1
     3    19    15    1
     4    15    16   am
     5    16    17    2
     6     9    16    1
     7     9    10    1
     8    10    11    1
     9    11    12    1
    10    12    13    1
    11    13    14    1
    12    14     1    1
    13     1     2    2
    14     1     3   am
    15     3     4    1
    16     4     5    1
    17     5     6    1
    18     6    24    1
    19    24    25   ar
    20    25    26   ar
    21    26    30    1
    22    30    31    1
    23    30    32    1
    24    30    33    1
    25    26    27   ar
    26    27    28    1
    27    27    29   ar
    28     6     7    1
    29     7     8    1
    30    19    20    1
    31    20    21    1
    32    21    19    1
    33    14     9    1
    34     8     3    1
    35    29    24   ar
    36    15    18    1
@<TRIPOS>MOLECULE
*****
 33 36 0 0 0
SMALL
GASTEIGER

@<TRIPOS>ATOM
      1 C         140.7533  142.2369  163.0791 C.2     1  UNL1        0.2257
      2 O         139.3976  142.7979  163.3906 O.2     1  UNL1       -0.2749
      3 N         140.9232  141.2734  161.9421 N.am    1  UNL1       -0.2760
      4 C         142.2790  140.7124  161.6306 C.3     1  UNL1        0.1149
      5 C         142.4489  139.7489  160.4936 C.3     1  UNL1        0.1141
      6 N         141.2628  139.3465  159.6680 N.pl3   1  UNL1       -0.2846
      7 C         139.9071  139.9075  159.9795 C.3     1  UNL1        0.1141
      8 C         139.7373  140.8710  161.1165 C.3     1  UNL1        0.1149
      9 C         142.2335  141.9274  165.1918 C.3     1  UNL1        0.0851
     10 C         143.4195  142.3298  166.0174 C.3     1  UNL1        0.0096
     11 C         144.3113  143.4440  165.5558 C.3     1  UNL1        0.0005
     12 C         144.0171  144.1559  164.2687 C.3     1  UNL1        0.0005
     13 C         142.8312  143.7536  163.4431 C.3     1  UNL1        0.0096
     14 C         141.9394  142.6393  163.9047 C.3     1  UNL1        0.0853
     15 N         139.9773  141.1201  166.1956 N.am    1  UNL1       -0.2959
     16 C         141.3417  140.8131  165.6534 C.2     1  UNL1        0.2231
     17 O         141.8143  139.3918  165.5726 O.2     1  UNL1       -0.2751
     18 H         139.6671  142.0530  166.2486 H       1  UNL1        0.1502
     19 C         139.0854  140.0058  166.6572 C.3     1  UNL1        0.1364
     20 C         138.0482  138.9229  166.6195 C.3     1  UNL1        0.0353
     21 C         138.3571  139.7091  165.3799 C.3     1  UNL1        0.0353
     22 N         139.9227  139.8257  169.5323 N.1     1  UNL1       -0.1943
     23 C         139.5040  139.9157  168.0947 C.1     1  UNL1        0.0896
     24 C         141.4327  138.3830  158.5309 C.ar    1  UNL1        0.1639
     25 N         142.6542  137.5597  158.2479 N.ar    1  UNL1       -0.2192
     26 C         142.3873  136.7415  157.0193 C.ar    1  UNL1        0.1711
     27 C         141.0008  137.0591  156.5431 C.ar    1  UNL1        0.1111
     28 CL        140.3232  136.4664  155.3433 Cl      1  UNL1       -0.0735
     29 S         140.4109  138.0736  157.4773 S.2     1  UNL1       -0.0401
     30 C         143.3396  135.7753  156.3794 C.3     1  UNL1        0.4362
     31 F         144.2919  134.8092  155.7395 F       1  UNL1       -0.1644
     32 F         142.5485  134.6280  156.9343 F       1  UNL1       -0.1644
     33 F         144.1307  136.9226  155.8245 F       1  UNL1       -0.1644
@<TRIPOS>BOND
     1    22    23    3
     2    23    19    1
     3    19    15    1
     4    15    16   am
     5    16    17    2
     6     9    16    1
     7     9    10    1
     8    10    11    1
     9    11    12    1
    10    12    13    1
    11    13    14    1
    12    14     1    1
    13     1     2    2
    14     1     3   am
    15     3     4    1
    16     4     5    1
    17     5     6    1
    18     6    24    1
    19    24    25   ar
    20    25    26   ar
    21    26    30    1
    22    30    31    1
    23    30    32    1
    24    30    33    1
    25    26    27   ar
    26    27    28    1
    27    27    29   ar
    28     6     7    1
    29     7     8    1
    30    19    20    1
    31    20    21    1
    32    21    19    1
    33    14     9    1
    34     8     3    1
    35    29    24   ar
    36    15    18    1
@<TRIPOS>MOLECULE
*****
 33 36 0 0 0
SMALL
GASTEIGER

@<TRIPOS>ATOM
      1 C         143.0897  141.5862  163.3429 C.2     1  UNL1        0.2257
      2 O         144.2917  141.3955  164.2196 O.2     1  UNL1       -0.2749
      3 N         142.8870  140.7051  162.1459 N.am    1  UNL1       -0.2760
      4 C         141.6848  140.8958  161.2692 C.3     1  UNL1        0.1149
      5 C         141.4822  140.0148  160.0723 C.3     1  UNL1        0.1141
      6 N         142.4817  138.9430  159.7520 N.pl3   1  UNL1       -0.2846
      7 C         143.6837  138.7524  160.6287 C.3     1  UNL1        0.1141
      8 C         143.8864  139.6334  161.8257 C.3     1  UNL1        0.1149
      9 C         140.8385  142.3155  164.4156 C.3     1  UNL1        0.0851
     10 C         139.8391  143.3871  164.7358 C.3     1  UNL1        0.0096
     11 C         140.0912  144.8012  164.3036 C.3     1  UNL1        0.0005
     12 C         141.3429  145.1436  163.5512 C.3     1  UNL1        0.0005
     13 C         142.3423  144.0719  163.2309 C.3     1  UNL1        0.0096
     14 C         142.0902  142.6579  163.6631 C.3     1  UNL1        0.0853
     15 N         139.5201  140.0899  164.1736 N.am    1  UNL1       -0.2959
     16 C         140.5864  140.9014  164.8478 C.2     1  UNL1        0.2231
     17 O         141.4005  140.2988  165.9541 O.2     1  UNL1       -0.2751
     18 H         138.9857  140.4854  163.4475 H       1  UNL1        0.1502
     19 C         139.2679  138.6758  164.6058 C.3     1  UNL1        0.1364
     20 C         138.7144  137.5155  165.3787 C.3     1  UNL1        0.0353
     21 C         138.3126  138.9156  165.7371 C.3     1  UNL1        0.0353
     22 N         141.0036  137.2140  162.6434 N.1     1  UNL1       -0.1943
     23 C         140.1357  137.9450  163.6246 C.1     1  UNL1        0.0896
     24 C         142.2790  138.0620  158.5551 C.ar    1  UNL1        0.1639
     25 N         143.2050  136.9765  158.0924 N.ar    1  UNL1       -0.2192
     26 C         142.6131  136.3554  156.8620 C.ar    1  UNL1        0.1711
     27 C         141.3212  137.0570  156.5643 C.ar    1  UNL1        0.1111
     28 CL        140.3978  136.7567  155.4209 Cl      1  UNL1       -0.0735
     29 S         141.1147  138.1117  157.6107 S.2     1  UNL1       -0.0401
     30 C         143.2085  135.2302  156.0687 C.3     1  UNL1        0.4362
     31 F         143.8039  134.1050  155.2754 F       1  UNL1       -0.1644
     32 F         142.1274  134.3128  156.5583 F       1  UNL1       -0.1644
     33 F         144.2896  136.1475  155.5790 F       1  UNL1       -0.1644
@<TRIPOS>BOND
     1    22    23    3
     2    23    19    1
     3    19    15    1
     4    15    16   am
     5    16    17    2
     6     9    16    1
     7     9    10    1
     8    10    11    1
     9    11    12    1
    10    12    13    1
    11    13    14    1
    12    14     1    1
    13     1     2    2
    14     1     3   am
    15     3     4    1
    16     4     5    1
    17     5     6    1
    18     6    24    1
    19    24    25   ar
    20    25    26   ar
    21    26    30    1
    22    30    31    1
    23    30    32    1
    24    30    33    1
    25    26    27   ar
    26    27    28    1
    27    27    29   ar
    28     6     7    1
    29     7     8    1
    30    19    20    1
    31    20    21    1
    32    21    19    1
    33    14     9    1
    34     8     3    1
    35    29    24   ar
    36    15    18    1
@<TRIPOS>MOLECULE
*****
 33 36 0 0 0
SMALL
GASTEIGER

@<TRIPOS>ATOM
      1 C         142.6578  143.4191  162.2990 C.2     1  UNL1        0.2257
      2 O         143.9089  144.2453  162.3414 O.2     1  UNL1       -0.2749
      3 N         142.5377  142.2896  161.3192 N.am    1  UNL1       -0.2760
      4 C         141.2864  141.4633  161.2769 C.3     1  UNL1        0.1149
      5 C         141.1663  140.3339  160.2972 C.3     1  UNL1        0.1141
      6 N         142.2975  140.0307  159.3597 N.pl3   1  UNL1       -0.2846
      7 C         143.5486  140.8570  159.4021 C.3     1  UNL1        0.1141
      8 C         143.6687  141.9864  160.3819 C.3     1  UNL1        0.1149
      9 C         141.3920  142.9593  164.5208 C.3     1  UNL1        0.0851
     10 C         140.2610  143.2624  165.4582 C.3     1  UNL1        0.0096
     11 C         139.2645  144.3285  165.1112 C.3     1  UNL1        0.0005
     12 C         139.3991  145.0914  163.8268 C.3     1  UNL1        0.0005
     13 C         140.5302  144.7883  162.8894 C.3     1  UNL1        0.0096
     14 C         141.5266  143.7222  163.2364 C.3     1  UNL1        0.0853
     15 N         141.9977  140.4471  164.7900 N.am    1  UNL1       -0.2959
     16 C         142.3886  141.8932  164.8679 C.2     1  UNL1        0.2231
     17 O         143.7761  142.2732  165.2928 O.2     1  UNL1       -0.2751
     18 H         141.0870  140.1978  164.5111 H       1  UNL1        0.1502
     19 C         142.9942  139.3810  165.1370 C.3     1  UNL1        0.1364
     20 C         143.7967  138.4148  165.9570 C.3     1  UNL1        0.0353
     21 C         142.7814  139.2983  166.6195 C.3     1  UNL1        0.0353
     22 N         144.1116  138.8062  162.4128 N.1     1  UNL1       -0.1943
     23 C         143.5530  139.0936  163.7750 C.1     1  UNL1        0.0896
     24 C         142.1774  138.9013  158.3800 C.ar    1  UNL1        0.1639
     25 N         143.2583  137.9240  158.0242 N.ar    1  UNL1       -0.2192
     26 C         142.7042  136.9695  157.0084 C.ar    1  UNL1        0.1711
     27 C         141.2809  137.3569  156.7362 C.ar    1  UNL1        0.1111
     28 CL        140.3471  136.6708  155.7837 Cl      1  UNL1       -0.0735
     29 S         140.9553  138.5508  157.5840 S.2     1  UNL1       -0.0401
     30 C         143.4437  135.8280  156.3757 C.3     1  UNL1        0.4362
     31 F         144.1832  134.6867  155.7430 F       1  UNL1       -0.1644
     32 F         144.2625  136.8002  155.5790 F       1  UNL1       -0.1644
     33 F         142.6249  134.8560  157.1723 F       1  UNL1       -0.1644
@<TRIPOS>BOND
     1    22    23    3
     2    23    19    1
     3    19    15    1
     4    15    16   am
     5    16    17    2
     6     9    16    1
     7     9    10    1
     8    10    11    1
     9    11    12    1
    10    12    13    1
    11    13    14    1
    12    14     1    1
    13     1     2    2
    14     1     3   am
    15     3     4    1
    16     4     5    1
    17     5     6    1
    18     6    24    1
    19    24    25   ar
    20    25    26   ar
    21    26    30    1
    22    30    31    1
    23    30    32    1
    24    30    33    1
    25    26    27   ar
    26    27    28    1
    27    27    29   ar
    28     6     7    1
    29     7     8    1
    30    19    20    1
    31    20    21    1
    32    21    19    1
    33    14     9    1
    34     8     3    1
    35    29    24   ar
    36    15    18    1
@<TRIPOS>MOLECULE
*****
 33 36 0 0 0
SMALL
GASTEIGER

@<TRIPOS>ATOM
      1 C         138.7493  140.3291  164.2411 C.2     1  UNL1        0.2257
      2 O         138.1909  139.3377  165.2184 O.2     1  UNL1       -0.2749
      3 N         139.2454  139.8657  162.9035 N.am    1  UNL1       -0.2760
      4 C         139.8038  140.8572  161.9261 C.3     1  UNL1        0.1149
      5 C         140.2999  140.3938  160.5884 C.3     1  UNL1        0.1141
      6 N         140.2376  138.9390  160.2282 N.pl3   1  UNL1       -0.2846
      7 C         139.6792  137.9476  161.2056 C.3     1  UNL1        0.1141
      8 C         139.1831  138.4110  162.5432 C.3     1  UNL1        0.1149
      9 C         140.0511  142.3485  165.2297 C.3     1  UNL1        0.0851
     10 C         140.1134  143.8032  165.5899 C.3     1  UNL1        0.0096
     11 C         138.9363  144.6934  165.3217 C.3     1  UNL1        0.0005
     12 C         137.6968  144.1288  164.6932 C.3     1  UNL1        0.0005
     13 C         137.6345  142.6740  164.3330 C.3     1  UNL1        0.0096
     14 C         138.8116  141.7839  164.6013 C.3     1  UNL1        0.0853
     15 N         141.0585  140.2199  166.3272 N.am    1  UNL1       -0.2959
     16 C         141.2282  141.4583  165.4979 C.2     1  UNL1        0.2231
     17 O         142.5751  141.8064  164.9368 O.2     1  UNL1       -0.2751
     18 H         140.1745  139.9914  166.6954 H       1  UNL1        0.1502
     19 C         142.2357  139.3297  166.5954 C.3     1  UNL1        0.1364
     20 C         143.2724  138.2646  166.3935 C.3     1  UNL1        0.0353
     21 C         142.2400  138.5168  165.3348 C.3     1  UNL1        0.0353
     22 N         143.0445  140.3373  169.3029 N.1     1  UNL1       -0.1943
     23 C         142.6400  139.8335  167.9491 C.1     1  UNL1        0.0896
     24 C         140.7337  138.4756  158.8906 C.ar    1  UNL1        0.1639
     25 N         142.1680  138.2597  158.5087 N.ar    1  UNL1       -0.2192
     26 C         142.2034  137.7975  157.0821 C.ar    1  UNL1        0.1711
     27 C         140.7908  137.7278  156.5824 C.ar    1  UNL1        0.1111
     28 CL        140.3618  137.3119  155.2065 Cl      1  UNL1       -0.0735
     29 S         139.8825  138.1469  157.7001 S.2     1  UNL1       -0.0401
     30 C         143.4350  137.4636  156.2937 C.3     1  UNL1        0.4362
     31 F         144.6666  137.1297  155.5054 F       1  UNL1       -0.1644
     32 F         143.3042  136.0251  156.6987 F       1  UNL1       -0.1644
     33 F         143.5658  138.9020  155.8888 F       1  UNL1       -0.1644
@<TRIPOS>BOND
     1    22    23    3
     2    23    19    1
     3    19    15    1
     4    15    16   am
     5    16    17    2
     6     9    16    1
     7     9    10    1
     8    10    11    1
     9    11    12    1
    10    12    13    1
    11    13    14    1
    12    14     1    1
    13     1     2    2
    14     1     3   am
    15     3     4    1
    16     4     5    1
    17     5     6    1
    18     6    24    1
    19    24    25   ar
    20    25    26   ar
    21    26    30    1
    22    30    31    1
    23    30    32    1
    24    30    33    1
    25    26    27   ar
    26    27    28    1
    27    27    29   ar
    28     6     7    1
    29     7     8    1
    30    19    20    1
    31    20    21    1
    32    21    19    1
    33    14     9    1
    34     8     3    1
    35    29    24   ar
    36    15    18    1
@<TRIPOS>MOLECULE
*****
 33 36 0 0 0
SMALL
GASTEIGER

@<TRIPOS>ATOM
      1 C         139.4995  140.4348  164.2946 C.2     1  UNL1        0.2257
      2 O         139.3234  139.4864  165.4433 O.2     1  UNL1       -0.2749
      3 N         139.8823  139.9116  162.9420 N.am    1  UNL1       -0.2760
      4 C         140.0584  140.8601  161.7933 C.3     1  UNL1        0.1149
      5 C         140.4412  140.3369  160.4406 C.3     1  UNL1        0.1141
      6 N         140.6480  138.8652  160.2367 N.pl3   1  UNL1       -0.2846
      7 C         140.4720  137.9168  161.3853 C.3     1  UNL1        0.1141
      8 C         140.0891  138.4400  162.7380 C.3     1  UNL1        0.1149
      9 C         140.4682  142.7991  164.7659 C.3     1  UNL1        0.0851
     10 C         140.2614  144.2706  164.9699 C.3     1  UNL1        0.0096
     11 C         138.8792  144.8497  164.9064 C.3     1  UNL1        0.0005
     12 C         137.7037  143.9571  164.6391 C.3     1  UNL1        0.0005
     13 C         137.9104  142.4855  164.4351 C.3     1  UNL1        0.0096
     14 C         139.2927  141.9065  164.4986 C.3     1  UNL1        0.0853
     15 N         142.7779  142.3628  163.6592 N.am    1  UNL1       -0.2959
     16 C         141.8505  142.2200  164.8294 C.2     1  UNL1        0.2231
     17 O         142.3053  141.4980  166.0631 O.2     1  UNL1       -0.2751
     18 H         142.4794  142.8366  162.8495 H       1  UNL1        0.1502
     19 C         144.1602  141.7837  163.7226 C.3     1  UNL1        0.1364
     20 C         145.6236  141.6589  164.0276 C.3     1  UNL1        0.0353
     21 C         144.8737  142.8908  164.4404 C.3     1  UNL1        0.0353
     22 N         143.6931  139.1673  162.3311 N.1     1  UNL1       -0.1943
     23 C         143.9267  140.4755  163.0268 C.1     1  UNL1        0.0896
     24 C         141.0308  138.3420  158.8840 C.ar    1  UNL1        0.1639
     25 N         142.3891  137.8490  158.4814 N.ar    1  UNL1       -0.2192
     26 C         142.3204  137.4223  157.0450 C.ar    1  UNL1        0.1711
     27 C         140.9196  137.6515  156.5599 C.ar    1  UNL1        0.1111
     28 CL        140.4060  137.3630  155.1804 Cl      1  UNL1       -0.0735
     29 S         140.1227  138.2200  157.6964 S.2     1  UNL1       -0.0401
     30 C         143.4534  136.8642  156.2358 C.3     1  UNL1        0.4362
     31 F         144.5865  136.3063  155.4267 F       1  UNL1       -0.1644
     32 F         143.6355  138.1969  155.5718 F       1  UNL1       -0.1644
     33 F         143.2714  135.5316  156.8999 F       1  UNL1       -0.1644
@<TRIPOS>BOND
     1    22    23    3
     2    23    19    1
     3    19    15    1
     4    15    16   am
     5    16    17    2
     6     9    16    1
     7     9    10    1
     8    10    11    1
     9    11    12    1
    10    12    13    1
    11    13    14    1
    12    14     1    1
    13     1     2    2
    14     1     3   am
    15     3     4    1
    16     4     5    1
    17     5     6    1
    18     6    24    1
    19    24    25   ar
    20    25    26   ar
    21    26    30    1
    22    30    31    1
    23    30    32    1
    24    30    33    1
    25    26    27   ar
    26    27    28    1
    27    27    29   ar
    28     6     7    1
    29     7     8    1
    30    19    20    1
    31    20    21    1
    32    21    19    1
    33    14     9    1
    34     8     3    1
    35    29    24   ar
    36    15    18    1
@<TRIPOS>MOLECULE
*****
 33 36 0 0 0
SMALL
GASTEIGER

@<TRIPOS>ATOM
      1 C         143.7421  140.6257  162.9928 C.2     1  UNL1        0.2257
      2 O         144.4705  141.9297  162.8556 O.2     1  UNL1       -0.2749
      3 N         143.4110  139.8195  161.7719 N.am    1  UNL1       -0.2760
      4 C         142.6826  138.5154  161.9091 C.3     1  UNL1        0.1149
      5 C         142.3515  137.7092  160.6883 C.3     1  UNL1        0.1141
      6 N         142.7488  138.2072  159.3302 N.pl3   1  UNL1       -0.2846
      7 C         143.4772  139.5112  159.1931 C.3     1  UNL1        0.1141
      8 C         143.8083  140.3174  160.4139 C.3     1  UNL1        0.1149
      9 C         142.1046  140.6549  165.0097 C.3     1  UNL1        0.0851
     10 C         141.7072  140.1570  166.3677 C.3     1  UNL1        0.0096
     11 C         142.5500  139.1319  167.0668 C.3     1  UNL1        0.0005
     12 C         143.7902  138.6047  166.4080 C.3     1  UNL1        0.0005
     13 C         144.1876  139.1026  165.0500 C.3     1  UNL1        0.0096
     14 C         143.3448  140.1277  164.3508 C.3     1  UNL1        0.0853
     15 N         141.6711  143.1230  164.3237 N.am    1  UNL1       -0.2959
     16 C         141.2618  141.6801  164.3105 C.2     1  UNL1        0.2231
     17 O         140.0097  141.2622  163.5981 O.2     1  UNL1       -0.2751
     18 H         142.4930  143.3973  164.7912 H       1  UNL1        0.1502
     19 C         140.8283  144.1482  163.6244 C.3     1  UNL1        0.1364
     20 C         139.7245  145.1325  163.3741 C.3     1  UNL1        0.0353
     21 C         139.7839  144.3866  164.6743 C.3     1  UNL1        0.0353
     22 N         142.3320  144.3830  161.0391 N.1     1  UNL1       -0.1943
     23 C         141.5802  144.2656  162.3318 C.1     1  UNL1        0.0896
     24 C         142.4177  137.4010  158.1094 C.ar    1  UNL1        0.1639
     25 N         143.1812  136.2132  157.6034 N.ar    1  UNL1       -0.2192
     26 C         142.5004  135.7192  156.3614 C.ar    1  UNL1        0.1711
     27 C         141.3160  136.6018  156.0998 C.ar    1  UNL1        0.1111
     28 CL        140.3520  136.4684  154.9584 Cl      1  UNL1       -0.0735
     29 S         141.2650  137.6412  157.1801 S.2     1  UNL1       -0.0401
     30 C         142.9286  134.5482  155.5275 C.3     1  UNL1        0.4362
     31 F         143.3570  133.3773  154.6936 F       1  UNL1       -0.1644
     32 F         144.0592  135.3601  154.9682 F       1  UNL1       -0.1644
     33 F         141.7981  133.7364  156.0869 F       1  UNL1       -0.1644
@<TRIPOS>BOND
     1    22    23    3
     2    23    19    1
     3    19    15    1
     4    15    16   am
     5    16    17    2
     6     9    16    1
     7     9    10    1
     8    10    11    1
     9    11    12    1
    10    12    13    1
    11    13    14    1
    12    14     1    1
    13     1     2    2
    14     1     3   am
    15     3     4    1
    16     4     5    1
    17     5     6    1
    18     6    24    1
    19    24    25   ar
    20    25    26   ar
    21    26    30    1
    22    30    31    1
    23    30    32    1
    24    30    33    1
    25    26    27   ar
    26    27    28    1
    27    27    29   ar
    28     6     7    1
    29     7     8    1
    30    19    20    1
    31    20    21    1
    32    21    19    1
    33    14     9    1
    34     8     3    1
    35    29    24   ar
    36    15    18    1
@<TRIPOS>MOLECULE
*****
 33 36 0 0 0
SMALL
GASTEIGER

@<TRIPOS>ATOM
      1 C         138.3203  141.1773  163.4661 C.2     1  UNL1        0.2257
      2 O         137.3357  142.2980  163.3095 O.2     1  UNL1       -0.2749
      3 N         138.8723  140.4890  162.2530 N.am    1  UNL1       -0.2760
      4 C         139.8569  139.3682  162.4096 C.3     1  UNL1        0.1149
      5 C         140.4090  138.6800  161.1965 C.3     1  UNL1        0.1141
      6 N         139.9764  139.1125  159.8269 N.pl3   1  UNL1       -0.2846
      7 C         138.9919  140.2333  159.6703 C.3     1  UNL1        0.1141
      8 C         138.4398  140.9215  160.8834 C.3     1  UNL1        0.1149
      9 C         139.8447  141.4878  165.5469 C.3     1  UNL1        0.0851
     10 C         140.2773  141.0553  166.9165 C.3     1  UNL1        0.0096
     11 C         139.6180  139.8798  167.5749 C.3     1  UNL1        0.0005
     12 C         138.5261  139.1368  166.8637 C.3     1  UNL1        0.0005
     13 C         138.0935  139.5693  165.4941 C.3     1  UNL1        0.0096
     14 C         138.7528  140.7448  164.8357 C.3     1  UNL1        0.0853
     15 N         141.7102  142.4579  164.0208 N.am    1  UNL1       -0.2959
     16 C         140.5040  142.6633  164.8884 C.2     1  UNL1        0.2231
     17 O         139.9570  144.0443  165.0977 O.2     1  UNL1       -0.2751
     18 H         142.0692  141.5515  163.8835 H       1  UNL1        0.1502
     19 C         142.3695  143.6334  163.3623 C.3     1  UNL1        0.1364
     20 C         143.3154  144.7756  163.1375 C.3     1  UNL1        0.0353
     21 C         143.4239  143.9457  164.3824 C.3     1  UNL1        0.0353
     22 N         140.7184  143.8251  160.8649 N.1     1  UNL1       -0.1943
     23 C         141.5439  143.7292  162.1137 C.1     1  UNL1        0.0896
     24 C         140.5285  138.4242  158.6138 C.ar    1  UNL1        0.1639
     25 N         141.9517  137.9943  158.4152 N.ar    1  UNL1       -0.2192
     26 C         142.0571  137.3494  157.0650 C.ar    1  UNL1        0.1711
     27 C         140.6989  137.3808  156.4291 C.ar    1  UNL1        0.1111
     28 CL        140.3472  136.8424  155.0740 Cl      1  UNL1       -0.0735
     29 S         139.7542  138.0451  157.3863 S.2     1  UNL1       -0.0401
     30 C         143.3020  136.7741  156.4574 C.3     1  UNL1        0.4362
     31 F         144.5469  136.1990  155.8498 F       1  UNL1       -0.1644
     32 F         143.6521  138.1217  155.8991 F       1  UNL1       -0.1644
     33 F         142.9519  135.4267  157.0158 F       1  UNL1       -0.1644
@<TRIPOS>BOND
     1    22    23    3
     2    23    19    1
     3    19    15    1
     4    15    16   am
     5    16    17    2
     6     9    16    1
     7     9    10    1
     8    10    11    1
     9    11    12    1
    10    12    13    1
    11    13    14    1
    12    14     1    1
    13     1     2    2
    14     1     3   am
    15     3     4    1
    16     4     5    1
    17     5     6    1
    18     6    24    1
    19    24    25   ar
    20    25    26   ar
    21    26    30    1
    22    30    31    1
    23    30    32    1
    24    30    33    1
    25    26    27   ar
    26    27    28    1
    27    27    29   ar
    28     6     7    1
    29     7     8    1
    30    19    20    1
    31    20    21    1
    32    21    19    1
    33    14     9    1
    34     8     3    1
    35    29    24   ar
    36    15    18    1
@<TRIPOS>MOLECULE
*****
 33 36 0 0 0
SMALL
GASTEIGER

@<TRIPOS>ATOM
      1 C         140.2037  143.1991  163.6898 C.2     1  UNL1        0.2257
      2 O         140.6878  144.1908  164.7056 O.2     1  UNL1       -0.2749
      3 N         140.1191  143.5875  162.2434 N.am    1  UNL1       -0.2760
      4 C         139.6350  142.5957  161.2275 C.3     1  UNL1        0.1149
      5 C         139.5505  142.9841  159.7811 C.3     1  UNL1        0.1141
      6 N         139.9501  144.3644  159.3507 N.pl3   1  UNL1       -0.2846
      7 C         140.4342  145.3562  160.3665 C.3     1  UNL1        0.1141
      8 C         140.5187  144.9677  161.8129 C.3     1  UNL1        0.1149
      9 C         140.7826  140.6870  164.0129 C.3     1  UNL1        0.0851
     10 C         140.3831  139.3068  164.4433 C.3     1  UNL1        0.0096
     11 C         139.0051  139.0583  164.9811 C.3     1  UNL1        0.0005
     12 C         138.0265  140.1901  165.0884 C.3     1  UNL1        0.0005
     13 C         138.4261  141.5704  164.6580 C.3     1  UNL1        0.0096
     14 C         139.8041  141.8188  164.1202 C.3     1  UNL1        0.0853
     15 N         143.1763  141.6507  164.3160 N.am    1  UNL1       -0.2959
     16 C         142.1608  140.9355  163.4751 C.2     1  UNL1        0.2231
     17 O         142.5232  140.4688  162.0964 O.2     1  UNL1       -0.2751
     18 H         142.9384  141.9570  165.2209 H       1  UNL1        0.1502
     19 C         144.5544  141.8992  163.7783 C.3     1  UNL1        0.1364
     20 C         146.0005  141.6750  163.4486 C.3     1  UNL1        0.0353
     21 C         145.2287  140.6244  164.1907 C.3     1  UNL1        0.0353
     22 N         144.1627  144.6215  162.5800 N.1     1  UNL1       -0.1943
     23 C         144.3586  143.2603  163.1791 C.1     1  UNL1        0.0896
     24 C         139.8656  144.7529  157.9043 C.ar    1  UNL1        0.1639
     25 N         139.9851  146.1442  157.3566 N.ar    1  UNL1       -0.2192
     26 C         139.8401  146.0694  155.8655 C.ar    1  UNL1        0.1711
     27 C         139.6309  144.6319  155.4916 C.ar    1  UNL1        0.1111
     28 CL        139.4395  144.1012  154.1018 Cl      1  UNL1       -0.0735
     29 S         139.6466  143.8183  156.7517 S.2     1  UNL1       -0.0401
     30 C         139.8946  147.2286  154.9151 C.3     1  UNL1        0.4362
     31 F         139.9491  148.3879  153.9648 F       1  UNL1       -0.1644
     32 F         138.5860  147.7293  155.4508 F       1  UNL1       -0.1644
     33 F         141.2032  146.7280  154.3795 F       1  UNL1       -0.1644
@<TRIPOS>BOND
     1    22    23    3
     2    23    19    1
     3    19    15    1
     4    15    16   am
     5    16    17    2
     6     9    16    1
     7     9    10    1
     8    10    11    1
     9    11    12    1
    10    12    13    1
    11    13    14    1
    12    14     1    1
    13     1     2    2
    14     1     3   am
    15     3     4    1
    16     4     5    1
    17     5     6    1
    18     6    24    1
    19    24    25   ar
    20    25    26   ar
    21    26    30    1
    22    30    31    1
    23    30    32    1
    24    30    33    1
    25    26    27   ar
    26    27    28    1
    27    27    29   ar
    28     6     7    1
    29     7     8    1
    30    19    20    1
    31    20    21    1
    32    21    19    1
    33    14     9    1
    34     8     3    1
    35    29    24   ar
    36    15    18    1
