@<TRIPOS>MOLECULE
*****
 39 44 0 0 0
SMALL
GASTEIGER

@<TRIPOS>ATOM
      1 C         137.8195  142.9587  163.1067 C.3     1  UNL1        0.0932
      2 C         138.0037  142.7023  161.6403 C.3     1  UNL1        0.0286
      3 C         138.0339  141.2946  161.1230 C.3     1  UNL1        0.0193
      4 C         137.8800  140.1433  162.0722 C.3     1  UNL1        0.0700
      5 C         137.6958  140.3997  163.5386 C.3     1  UNL1        0.0193
      6 C         137.6656  141.8075  164.0558 C.3     1  UNL1        0.0286
      7 C         137.8568  140.8972  162.4025 C.3     1  UNL1        0.1562
      8 O         137.8295  142.1700  162.8702 O.3     1  UNL1       -0.3572
      9 N         137.9102  138.7357  161.5549 N.3     1  UNL1       -0.2926
     10 H         137.3190  138.7145  160.7240 H       1  UNL1        0.1236
     11 C         139.2164  138.1048  161.1731 C.3     1  UNL1        0.1152
     12 C         140.4191  138.2796  162.0522 C.ar    1  UNL1        0.0765
     13 C         140.5777  137.4363  163.2826 C.ar    1  UNL1        0.0193
     14 C         141.7803  137.6110  164.1617 C.ar    1  UNL1        0.0411
     15 C         142.8245  138.6291  163.8106 C.ar    1  UNL1        0.1708
     16 C         142.6660  139.4724  162.5804 C.ar    1  UNL1        0.1682
     17 N         141.4632  139.2977  161.7011 N.ar    1  UNL1       -0.2304
     18 N         143.7101  140.4905  162.2292 N.am    1  UNL1       -0.2639
     19 C         144.9128  140.6652  163.1084 C.2     1  UNL1        0.2718
     20 O         145.9569  141.6833  162.7573 O.2     1  UNL1       -0.2707
     21 C         145.0714  139.8219  164.3388 C.3     1  UNL1        0.2898
     22 O         144.0272  138.8038  164.6899 O.3     1  UNL1       -0.4628
     23 H         143.6060  141.0440  161.4217 H       1  UNL1        0.1565
     24 C         137.7893  144.3663  163.6239 C.3     1  UNL1        0.0320
     25 C         138.8930  144.8637  164.5097 C.3     1  UNL1        0.0335
     26 C         140.8664  142.0058  167.3711 C.ar    1  UNL1        0.2250
     27 C         142.2786  141.5604  167.1317 C.ar    1  UNL1        0.0593
     28 C         143.0330  142.0677  165.9386 C.ar    1  UNL1        0.0254
     29 C         142.3752  143.0204  164.9848 C.ar    1  UNL1        0.0990
     30 N         143.1296  143.5277  163.7917 N.ar    1  UNL1       -0.2392
     31 C         142.4718  144.4804  162.8380 C.ar    1  UNL1        0.1353
     32 C         141.0595  144.9257  163.0773 C.ar    1  UNL1        0.1552
     33 C         140.3051  144.4184  164.2704 C.ar    1  UNL1        0.0326
     34 C         140.9630  143.4657  165.2242 C.ar    1  UNL1        0.1009
     35 N         140.2086  142.9584  166.4173 N.ar    1  UNL1       -0.2104
     36 C         139.4941  140.1320  168.5353 C.3     1  UNL1        0.2542
     37 O         140.1120  141.4984  168.5642 O.3     1  UNL1       -0.4561
     38 O         140.4017  145.8784  162.1235 O.3     1  UNL1       -0.4701
     39 C         140.2854  145.5243  160.6705 C.3     1  UNL1        0.2525
@<TRIPOS>BOND
     1    36    37    1
     2    37    26    1
     3    26    27   ar
     4    27    28   ar
     5    28    29   ar
     6    29    30   ar
     7    30    31   ar
     8    31    32   ar
     9    32    38    1
    10    38    39    1
    11    32    33   ar
    12    33    25    1
    13    25    24    1
    14    24     1    1
    15     1     2    1
    16     2     3    1
    17     3     4    1
    18     4     9    1
    19     9    11    1
    20    11    12    1
    21    12    13   ar
    22    13    14   ar
    23    14    15   ar
    24    15    16   ar
    25    16    17   ar
    26    16    18    1
    27    18    19   am
    28    19    20    2
    29    19    21    1
    30    21    22    1
    31     4     5    1
    32     5     6    1
    33     4     7    1
    34     7     8    1
    35    33    34   ar
    36    34    35   ar
    37    35    26   ar
    38    34    29   ar
    39     6     1    1
    40     8     1    1
    41    17    12   ar
    42    22    15    1
    43     9    10    1
    44    18    23    1
@<TRIPOS>MOLECULE
*****
 39 44 0 0 0
SMALL
GASTEIGER

@<TRIPOS>ATOM
      1 C         141.9099  138.0557  164.1744 C.3     1  UNL1        0.0932
      2 C         142.9079  138.4725  165.2138 C.3     1  UNL1        0.0286
      3 C         144.1118  139.2750  164.8182 C.3     1  UNL1        0.0193
      4 C         144.3177  139.6608  163.3834 C.3     1  UNL1        0.0700
      5 C         143.3197  139.2440  162.3440 C.3     1  UNL1        0.0193
      6 C         142.1157  138.4414  162.7396 C.3     1  UNL1        0.0286
      7 C         143.6427  139.2205  163.5520 C.3     1  UNL1        0.1562
      8 O         142.5541  138.4948  163.9096 O.3     1  UNL1       -0.3572
      9 N         145.5216  140.4634  162.9879 N.3     1  UNL1       -0.2926
     10 H         145.5973  140.3998  161.9726 H       1  UNL1        0.1236
     11 C         145.6000  141.9199  163.3376 C.3     1  UNL1        0.1152
     12 C         144.3874  142.7915  163.1963 C.ar    1  UNL1        0.0765
     13 C         143.6891  143.3089  164.4189 C.ar    1  UNL1        0.0193
     14 C         142.4765  144.1804  164.2776 C.ar    1  UNL1        0.0411
     15 C         141.9622  144.5346  162.9138 C.ar    1  UNL1        0.1708
     16 C         142.6604  144.0172  161.6913 C.ar    1  UNL1        0.1682
     17 N         143.8731  143.1456  161.8325 N.ar    1  UNL1       -0.2304
     18 N         142.1461  144.3714  160.3274 N.am    1  UNL1       -0.2639
     19 C         140.9335  145.2429  160.1861 C.2     1  UNL1        0.2718
     20 O         140.4192  145.5971  158.8223 O.2     1  UNL1       -0.2707
     21 C         140.2352  145.7604  161.4087 C.3     1  UNL1        0.2898
     22 O         140.7495  145.4062  162.7726 O.3     1  UNL1       -0.4628
     23 H         142.6044  144.0318  159.5250 H       1  UNL1        0.1565
     24 C         140.7060  137.2531  164.5699 C.3     1  UNL1        0.0320
     25 C         139.4807  137.9452  165.0894 C.3     1  UNL1        0.0335
     26 C         140.7301  141.3772  167.7182 C.ar    1  UNL1        0.2250
     27 C         140.4323  142.7873  167.3026 C.ar    1  UNL1        0.0593
     28 C         139.7180  143.0535  166.0107 C.ar    1  UNL1        0.0254
     29 C         139.3016  141.9096  165.1345 C.ar    1  UNL1        0.0990
     30 N         138.5873  142.1757  163.8426 N.ar    1  UNL1       -0.2392
     31 C         138.1708  141.0318  162.9663 C.ar    1  UNL1        0.1353
     32 C         138.4686  139.6216  163.3819 C.ar    1  UNL1        0.1552
     33 C         139.1829  139.3554  164.6738 C.ar    1  UNL1        0.0326
     34 C         139.5994  140.4994  165.5501 C.ar    1  UNL1        0.1009
     35 N         140.3137  140.2332  166.8420 N.ar    1  UNL1       -0.2104
     36 C         141.6222  139.7018  169.4923 C.3     1  UNL1        0.2542
     37 O         141.4444  141.1110  169.0101 O.3     1  UNL1       -0.4561
     38 O         138.0522  138.4776  162.5057 O.3     1  UNL1       -0.4701
     39 C         138.7970  138.1969  161.2343 C.3     1  UNL1        0.2525
@<TRIPOS>BOND
     1    36    37    1
     2    37    26    1
     3    26    27   ar
     4    27    28   ar
     5    28    29   ar
     6    29    30   ar
     7    30    31   ar
     8    31    32   ar
     9    32    38    1
    10    38    39    1
    11    32    33   ar
    12    33    25    1
    13    25    24    1
    14    24     1    1
    15     1     2    1
    16     2     3    1
    17     3     4    1
    18     4     9    1
    19     9    11    1
    20    11    12    1
    21    12    13   ar
    22    13    14   ar
    23    14    15   ar
    24    15    16   ar
    25    16    17   ar
    26    16    18    1
    27    18    19   am
    28    19    20    2
    29    19    21    1
    30    21    22    1
    31     4     5    1
    32     5     6    1
    33     4     7    1
    34     7     8    1
    35    33    34   ar
    36    34    35   ar
    37    35    26   ar
    38    34    29   ar
    39     6     1    1
    40     8     1    1
    41    17    12   ar
    42    22    15    1
    43     9    10    1
    44    18    23    1
@<TRIPOS>MOLECULE
*****
 39 44 0 0 0
SMALL
GASTEIGER

@<TRIPOS>ATOM
      1 C         139.3740  138.0436  164.4914 C.3     1  UNL1        0.0932
      2 C         140.7723  137.6417  164.8565 C.3     1  UNL1        0.0286
      3 C         141.7881  137.3988  163.7799 C.3     1  UNL1        0.0193
      4 C         141.4057  137.5577  162.3382 C.3     1  UNL1        0.0700
      5 C         140.0074  137.9595  161.9731 C.3     1  UNL1        0.0193
      6 C         138.9915  138.2025  163.0497 C.3     1  UNL1        0.0286
      7 C         140.8145  137.7017  162.8929 C.3     1  UNL1        0.1562
      8 O         139.8960  137.9214  163.8664 O.3     1  UNL1       -0.3572
      9 N         142.4215  137.3147  161.2616 N.3     1  UNL1       -0.2926
     10 H         141.9339  137.4072  160.3705 H       1  UNL1        0.1236
     11 C         143.6456  138.1775  161.1770 C.3     1  UNL1        0.1152
     12 C         143.5547  139.6413  161.4916 C.ar    1  UNL1        0.0765
     13 C         142.9250  140.5822  160.5076 C.ar    1  UNL1        0.0193
     14 C         142.8341  142.0460  160.8222 C.ar    1  UNL1        0.0411
     15 C         143.3729  142.5690  162.1207 C.ar    1  UNL1        0.1708
     16 C         144.0026  141.6281  163.1047 C.ar    1  UNL1        0.1682
     17 N         144.0935  140.1642  162.7901 N.ar    1  UNL1       -0.2304
     18 N         144.5414  142.1511  164.4032 N.am    1  UNL1       -0.2639
     19 C         144.4505  143.6148  164.7178 C.2     1  UNL1        0.2718
     20 O         144.9893  144.1378  166.0163 O.2     1  UNL1       -0.2707
     21 C         143.8208  144.5558  163.7338 C.3     1  UNL1        0.2898
     22 O         143.2820  144.0328  162.4353 O.3     1  UNL1       -0.4628
     23 H         144.9547  141.5335  165.0490 H       1  UNL1        0.1565
     24 C         138.3582  138.2865  165.5680 C.3     1  UNL1        0.0320
     25 C         138.1726  139.6663  166.1265 C.3     1  UNL1        0.0335
     26 C         141.6521  140.0656  168.9520 C.ar    1  UNL1        0.2250
     27 C         142.6945  141.1175  168.7140 C.ar    1  UNL1        0.0593
     28 C         142.5772  142.0364  167.5342 C.ar    1  UNL1        0.0254
     29 C         141.4173  141.9033  166.5924 C.ar    1  UNL1        0.0990
     30 N         141.3000  142.8221  165.4126 N.ar    1  UNL1       -0.2392
     31 C         140.1402  142.6891  164.4708 C.ar    1  UNL1        0.1353
     32 C         139.0976  141.6371  164.7087 C.ar    1  UNL1        0.1552
     33 C         139.2150  140.7182  165.8885 C.ar    1  UNL1        0.0326
     34 C         140.3749  140.8513  166.8304 C.ar    1  UNL1        0.1009
     35 N         140.4923  139.9325  168.0102 N.ar    1  UNL1       -0.2104
     36 C         142.9217  138.1911  170.2265 C.3     1  UNL1        0.2542
     37 O         141.7694  139.1467  170.1318 O.3     1  UNL1       -0.4561
     38 O         137.9378  141.5040  163.7669 O.3     1  UNL1       -0.4701
     39 C         137.6967  142.5520  162.7212 C.3     1  UNL1        0.2525
@<TRIPOS>BOND
     1    36    37    1
     2    37    26    1
     3    26    27   ar
     4    27    28   ar
     5    28    29   ar
     6    29    30   ar
     7    30    31   ar
     8    31    32   ar
     9    32    38    1
    10    38    39    1
    11    32    33   ar
    12    33    25    1
    13    25    24    1
    14    24     1    1
    15     1     2    1
    16     2     3    1
    17     3     4    1
    18     4     9    1
    19     9    11    1
    20    11    12    1
    21    12    13   ar
    22    13    14   ar
    23    14    15   ar
    24    15    16   ar
    25    16    17   ar
    26    16    18    1
    27    18    19   am
    28    19    20    2
    29    19    21    1
    30    21    22    1
    31     4     5    1
    32     5     6    1
    33     4     7    1
    34     7     8    1
    35    33    34   ar
    36    34    35   ar
    37    35    26   ar
    38    34    29   ar
    39     6     1    1
    40     8     1    1
    41    17    12   ar
    42    22    15    1
    43     9    10    1
    44    18    23    1
@<TRIPOS>MOLECULE
*****
 39 44 0 0 0
SMALL
GASTEIGER

@<TRIPOS>ATOM
      1 C         141.7129  138.1920  164.2602 C.3     1  UNL1        0.0932
      2 C         142.7887  138.5029  165.2582 C.3     1  UNL1        0.0286
      3 C         144.0220  139.2395  164.8266 C.3     1  UNL1        0.0193
      4 C         144.1795  139.6654  163.3969 C.3     1  UNL1        0.0700
      5 C         143.1037  139.3545  162.3989 C.3     1  UNL1        0.0193
      6 C         141.8704  138.6178  162.8306 C.3     1  UNL1        0.0286
      7 C         143.4859  139.2640  163.5862 C.3     1  UNL1        0.1562
      8 O         142.3708  138.5979  163.9765 O.3     1  UNL1       -0.3572
      9 N         145.4127  140.4021  162.9653 N.3     1  UNL1       -0.2926
     10 H         145.4873  140.2848  161.9548 H       1  UNL1        0.1236
     11 C         145.5445  141.8705  163.2417 C.3     1  UNL1        0.1152
     12 C         144.3445  142.7642  163.1361 C.ar    1  UNL1        0.0765
     13 C         143.6840  143.2829  164.3790 C.ar    1  UNL1        0.0193
     14 C         142.4840  144.1766  164.2735 C.ar    1  UNL1        0.0411
     15 C         141.9444  144.5516  162.9251 C.ar    1  UNL1        0.1708
     16 C         142.6048  144.0330  161.6822 C.ar    1  UNL1        0.1682
     17 N         143.8049  143.1392  161.7877 N.ar    1  UNL1       -0.2304
     18 N         142.0652  144.4080  160.3338 N.am    1  UNL1       -0.2639
     19 C         140.8652  145.3017  160.2282 C.2     1  UNL1        0.2718
     20 O         140.3256  145.6767  158.8798 O.2     1  UNL1       -0.2707
     21 C         140.2047  145.8204  161.4711 C.3     1  UNL1        0.2898
     22 O         140.7443  145.4454  162.8195 O.3     1  UNL1       -0.4628
     23 H         142.4987  144.0675  159.5181 H       1  UNL1        0.1565
     24 C         140.4796  137.4553  164.6918 C.3     1  UNL1        0.0320
     25 C         139.3030  138.2137  165.2308 C.3     1  UNL1        0.0335
     26 C         137.9210  140.5973  161.6729 C.ar    1  UNL1        0.2250
     27 C         137.9512  142.0963  161.7169 C.ar    1  UNL1        0.0593
     28 C         138.4421  142.8008  162.9468 C.ar    1  UNL1        0.0254
     29 C         138.9027  142.0063  164.1327 C.ar    1  UNL1        0.0990
     30 N         139.3936  142.7109  165.3627 N.ar    1  UNL1       -0.2392
     31 C         139.8542  141.9163  166.5486 C.ar    1  UNL1        0.1353
     32 C         139.8241  140.4172  166.5047 C.ar    1  UNL1        0.1552
     33 C         139.3332  139.7127  165.2747 C.ar    1  UNL1        0.0326
     34 C         138.8725  140.5073  164.0888 C.ar    1  UNL1        0.1009
     35 N         138.3817  139.8028  162.8588 N.ar    1  UNL1       -0.2104
     36 C         137.8832  140.3472  159.0872 C.3     1  UNL1        0.2542
     37 O         137.4301  139.8928  160.4430 O.3     1  UNL1       -0.4561
     38 O         140.2847  139.6227  167.6906 O.3     1  UNL1       -0.4701
     39 C         140.4096  140.2818  169.0322 C.3     1  UNL1        0.2525
@<TRIPOS>BOND
     1    36    37    1
     2    37    26    1
     3    26    27   ar
     4    27    28   ar
     5    28    29   ar
     6    29    30   ar
     7    30    31   ar
     8    31    32   ar
     9    32    38    1
    10    38    39    1
    11    32    33   ar
    12    33    25    1
    13    25    24    1
    14    24     1    1
    15     1     2    1
    16     2     3    1
    17     3     4    1
    18     4     9    1
    19     9    11    1
    20    11    12    1
    21    12    13   ar
    22    13    14   ar
    23    14    15   ar
    24    15    16   ar
    25    16    17   ar
    26    16    18    1
    27    18    19   am
    28    19    20    2
    29    19    21    1
    30    21    22    1
    31     4     5    1
    32     5     6    1
    33     4     7    1
    34     7     8    1
    35    33    34   ar
    36    34    35   ar
    37    35    26   ar
    38    34    29   ar
    39     6     1    1
    40     8     1    1
    41    17    12   ar
    42    22    15    1
    43     9    10    1
    44    18    23    1
@<TRIPOS>MOLECULE
*****
 39 44 0 0 0
SMALL
GASTEIGER

@<TRIPOS>ATOM
      1 C         139.1342  142.7386  163.9395 C.3     1  UNL1        0.0932
      2 C         139.4295  143.0723  162.5072 C.3     1  UNL1        0.0286
      3 C         140.6427  143.8837  162.1610 C.3     1  UNL1        0.0193
      4 C         141.5605  144.3614  163.2470 C.3     1  UNL1        0.0700
      5 C         141.2652  144.0276  164.6793 C.3     1  UNL1        0.0193
      6 C         140.0520  143.2162  165.0255 C.3     1  UNL1        0.0286
      7 C         140.9080  143.9196  163.4856 C.3     1  UNL1        0.1562
      8 O         139.8110  143.1859  163.7987 O.3     1  UNL1       -0.3572
      9 N         142.7737  145.1728  162.9008 N.3     1  UNL1       -0.2926
     10 H         142.8816  145.8701  163.6374 H       1  UNL1        0.1236
     11 C         144.1053  144.5007  162.7423 C.3     1  UNL1        0.1152
     12 C         144.1857  143.0051  162.6622 C.ar    1  UNL1        0.0765
     13 C         144.6910  142.2173  163.8344 C.ar    1  UNL1        0.0193
     14 C         144.7714  140.7216  163.7543 C.ar    1  UNL1        0.0411
     15 C         144.3467  140.0137  162.5019 C.ar    1  UNL1        0.1708
     16 C         143.8415  140.8014  161.3297 C.ar    1  UNL1        0.1682
     17 N         143.7610  142.2971  161.4098 N.ar    1  UNL1       -0.2304
     18 N         143.4167  140.0935  160.0774 N.am    1  UNL1       -0.2639
     19 C         143.4971  138.5978  159.9972 C.2     1  UNL1        0.2718
     20 O         143.0724  137.8899  158.7449 O.2     1  UNL1       -0.2707
     21 C         144.0024  137.8100  161.1695 C.3     1  UNL1        0.2898
     22 O         144.4272  138.5179  162.4219 O.3     1  UNL1       -0.4628
     23 H         143.0851  140.6105  159.3080 H       1  UNL1        0.1565
     24 C         137.9211  141.9272  164.2857 C.3     1  UNL1        0.0320
     25 C         138.0784  140.5654  164.8948 C.3     1  UNL1        0.0335
     26 C         141.8212  139.8550  167.2899 C.ar    1  UNL1        0.2250
     27 C         142.8751  138.9202  166.7748 C.ar    1  UNL1        0.0593
     28 C         142.6814  138.2221  165.4614 C.ar    1  UNL1        0.0254
     29 C         141.4338  138.4589  164.6630 C.ar    1  UNL1        0.0990
     30 N         141.2401  137.7609  163.3495 N.ar    1  UNL1       -0.2392
     31 C         139.9925  137.9976  162.5511 C.ar    1  UNL1        0.1353
     32 C         138.9386  138.9325  163.0662 C.ar    1  UNL1        0.1552
     33 C         139.1323  139.6306  164.3797 C.ar    1  UNL1        0.0326
     34 C         140.3799  139.3937  165.1781 C.ar    1  UNL1        0.1009
     35 N         140.5736  140.0918  166.4916 N.ar    1  UNL1       -0.2104
     36 C         142.4923  139.7829  169.7988 C.3     1  UNL1        0.2542
     37 O         142.0149  140.5530  168.6034 O.3     1  UNL1       -0.4561
     38 O         137.6910  139.1693  162.2679 O.3     1  UNL1       -0.4701
     39 C         137.7423  140.0131  161.0287 C.3     1  UNL1        0.2525
@<TRIPOS>BOND
     1    36    37    1
     2    37    26    1
     3    26    27   ar
     4    27    28   ar
     5    28    29   ar
     6    29    30   ar
     7    30    31   ar
     8    31    32   ar
     9    32    38    1
    10    38    39    1
    11    32    33   ar
    12    33    25    1
    13    25    24    1
    14    24     1    1
    15     1     2    1
    16     2     3    1
    17     3     4    1
    18     4     9    1
    19     9    11    1
    20    11    12    1
    21    12    13   ar
    22    13    14   ar
    23    14    15   ar
    24    15    16   ar
    25    16    17   ar
    26    16    18    1
    27    18    19   am
    28    19    20    2
    29    19    21    1
    30    21    22    1
    31     4     5    1
    32     5     6    1
    33     4     7    1
    34     7     8    1
    35    33    34   ar
    36    34    35   ar
    37    35    26   ar
    38    34    29   ar
    39     6     1    1
    40     8     1    1
    41    17    12   ar
    42    22    15    1
    43     9    10    1
    44    18    23    1
@<TRIPOS>MOLECULE
*****
 39 44 0 0 0
SMALL
GASTEIGER

@<TRIPOS>ATOM
      1 C         137.8939  140.5444  161.9002 C.3     1  UNL1        0.0932
      2 C         137.3900  140.8866  163.2709 C.3     1  UNL1        0.0286
      3 C         137.6359  142.2519  163.8412 C.3     1  UNL1        0.0193
      4 C         138.3859  143.2752  163.0408 C.3     1  UNL1        0.0700
      5 C         138.8898  142.9330  161.6701 C.3     1  UNL1        0.0193
      6 C         138.6438  141.5676  161.0997 C.3     1  UNL1        0.0286
      7 C         138.2755  142.5404  162.6862 C.3     1  UNL1        0.1562
      8 O         138.0531  141.3058  162.1704 O.3     1  UNL1       -0.3572
      9 N         138.6318  144.6405  163.6111 N.3     1  UNL1       -0.2926
     10 H         137.7750  144.9185  164.0897 H       1  UNL1        0.1236
     11 C         139.7578  144.8577  164.5781 C.3     1  UNL1        0.1152
     12 C         141.1401  144.3850  164.2382 C.ar    1  UNL1        0.0765
     13 C         142.0959  145.3042  163.5370 C.ar    1  UNL1        0.0193
     14 C         143.4782  144.8315  163.1970 C.ar    1  UNL1        0.0411
     15 C         143.9049  143.4395  163.5582 C.ar    1  UNL1        0.1708
     16 C         142.9492  142.5203  164.2593 C.ar    1  UNL1        0.1682
     17 N         141.5667  142.9930  164.5993 N.ar    1  UNL1       -0.2304
     18 N         143.3758  141.1283  164.6204 N.am    1  UNL1       -0.2639
     19 C         144.7581  140.6556  164.2805 C.2     1  UNL1        0.2718
     20 O         145.1847  139.2636  164.6416 O.2     1  UNL1       -0.2707
     21 C         145.7139  141.5748  163.5793 C.3     1  UNL1        0.2898
     22 O         145.2873  142.9668  163.2182 O.3     1  UNL1       -0.4628
     23 H         142.7485  140.5250  165.0806 H       1  UNL1        0.1565
     24 C         137.6480  139.1791  161.3298 C.3     1  UNL1        0.0320
     25 C         138.1989  137.9671  162.0210 C.3     1  UNL1        0.0335
     26 C         141.9305  138.2858  159.5263 C.ar    1  UNL1        0.2250
     27 C         143.2738  138.3472  160.1907 C.ar    1  UNL1        0.0593
     28 C         143.3734  138.3023  161.6867 C.ar    1  UNL1        0.0254
     29 C         142.1296  138.1960  162.5183 C.ar    1  UNL1        0.0990
     30 N         142.2291  138.1511  164.0143 N.ar    1  UNL1       -0.2392
     31 C         140.9853  138.0449  164.8459 C.ar    1  UNL1        0.1353
     32 C         139.6418  137.9835  164.1815 C.ar    1  UNL1        0.1552
     33 C         139.5423  138.0285  162.6855 C.ar    1  UNL1        0.0326
     34 C         140.7862  138.1347  161.8539 C.ar    1  UNL1        0.1009
     35 N         140.6866  138.1796  160.3579 N.ar    1  UNL1       -0.2104
     36 C         140.5505  137.9433  157.3518 C.3     1  UNL1        0.2542
     37 O         141.8309  138.3308  158.0303 O.3     1  UNL1       -0.4561
     38 O         138.3980  137.8773  165.0131 O.3     1  UNL1       -0.4701
     39 C         138.1909  138.8038  166.1744 C.3     1  UNL1        0.2525
@<TRIPOS>BOND
     1    36    37    1
     2    37    26    1
     3    26    27   ar
     4    27    28   ar
     5    28    29   ar
     6    29    30   ar
     7    30    31   ar
     8    31    32   ar
     9    32    38    1
    10    38    39    1
    11    32    33   ar
    12    33    25    1
    13    25    24    1
    14    24     1    1
    15     1     2    1
    16     2     3    1
    17     3     4    1
    18     4     9    1
    19     9    11    1
    20    11    12    1
    21    12    13   ar
    22    13    14   ar
    23    14    15   ar
    24    15    16   ar
    25    16    17   ar
    26    16    18    1
    27    18    19   am
    28    19    20    2
    29    19    21    1
    30    21    22    1
    31     4     5    1
    32     5     6    1
    33     4     7    1
    34     7     8    1
    35    33    34   ar
    36    34    35   ar
    37    35    26   ar
    38    34    29   ar
    39     6     1    1
    40     8     1    1
    41    17    12   ar
    42    22    15    1
    43     9    10    1
    44    18    23    1
@<TRIPOS>MOLECULE
*****
 39 44 0 0 0
SMALL
GASTEIGER

@<TRIPOS>ATOM
      1 C         142.5716  144.4462  163.3870 C.3     1  UNL1        0.0932
      2 C         143.2772  144.1693  164.6814 C.3     1  UNL1        0.0286
      3 C         144.4053  143.1817  164.7243 C.3     1  UNL1        0.0193
      4 C         144.8279  142.4710  163.4728 C.3     1  UNL1        0.0700
      5 C         144.1223  142.7479  162.1784 C.3     1  UNL1        0.0193
      6 C         142.9941  143.7355  162.1355 C.3     1  UNL1        0.0286
      7 C         144.2043  143.0036  163.3998 C.3     1  UNL1        0.1562
      8 O         143.1842  143.8967  163.3610 O.3     1  UNL1       -0.3572
      9 N         145.9561  141.4834  163.5157 N.3     1  UNL1       -0.2926
     10 H         146.7204  141.9312  164.0212 H       1  UNL1        0.1236
     11 C         145.7509  140.1372  164.1449 C.3     1  UNL1        0.1152
     12 C         144.3834  139.5216  164.1698 C.ar    1  UNL1        0.0765
     13 C         143.8167  139.0052  165.4591 C.ar    1  UNL1        0.0193
     14 C         142.4491  138.3895  165.4841 C.ar    1  UNL1        0.0411
     15 C         141.6482  138.2902  164.2197 C.ar    1  UNL1        0.1708
     16 C         142.2148  138.8065  162.9304 C.ar    1  UNL1        0.1682
     17 N         143.5824  139.4222  162.9054 N.ar    1  UNL1       -0.2304
     18 N         141.4138  138.7071  161.6661 N.am    1  UNL1       -0.2639
     19 C         140.0463  138.0914  161.6910 C.2     1  UNL1        0.2718
     20 O         139.2453  137.9921  160.4266 O.2     1  UNL1       -0.2707
     21 C         139.4796  137.5751  162.9803 C.3     1  UNL1        0.2898
     22 O         140.2805  137.6744  164.2447 O.3     1  UNL1       -0.4628
     23 H         141.7857  139.0460  160.8198 H       1  UNL1        0.1565
     24 C         141.4435  145.4339  163.3441 C.3     1  UNL1        0.0320
     25 C         140.1118  145.0775  163.9356 C.3     1  UNL1        0.0335
     26 C         140.4110  142.3521  167.5038 C.ar    1  UNL1        0.2250
     27 C         139.9041  140.9431  167.4159 C.ar    1  UNL1        0.0593
     28 C         139.2975  140.4426  166.1386 C.ar    1  UNL1        0.0254
     29 C         139.1977  141.3510  164.9492 C.ar    1  UNL1        0.0990
     30 N         138.5911  140.8505  163.6719 N.ar    1  UNL1       -0.2392
     31 C         138.4914  141.7590  162.4825 C.ar    1  UNL1        0.1353
     32 C         138.9983  143.1680  162.5704 C.ar    1  UNL1        0.1552
     33 C         139.6049  143.6686  163.8477 C.ar    1  UNL1        0.0326
     34 C         139.7046  142.7600  165.0372 C.ar    1  UNL1        0.1009
     35 N         140.3112  143.2605  166.3145 N.ar    1  UNL1       -0.2104
     36 C         140.1799  142.9500  170.0216 C.3     1  UNL1        0.2542
     37 O         141.0176  142.8526  168.7811 O.3     1  UNL1       -0.4561
     38 O         138.8986  144.0765  161.3810 O.3     1  UNL1       -0.4701
     39 C         139.8308  143.8968  160.2198 C.3     1  UNL1        0.2525
@<TRIPOS>BOND
     1    36    37    1
     2    37    26    1
     3    26    27   ar
     4    27    28   ar
     5    28    29   ar
     6    29    30   ar
     7    30    31   ar
     8    31    32   ar
     9    32    38    1
    10    38    39    1
    11    32    33   ar
    12    33    25    1
    13    25    24    1
    14    24     1    1
    15     1     2    1
    16     2     3    1
    17     3     4    1
    18     4     9    1
    19     9    11    1
    20    11    12    1
    21    12    13   ar
    22    13    14   ar
    23    14    15   ar
    24    15    16   ar
    25    16    17   ar
    26    16    18    1
    27    18    19   am
    28    19    20    2
    29    19    21    1
    30    21    22    1
    31     4     5    1
    32     5     6    1
    33     4     7    1
    34     7     8    1
    35    33    34   ar
    36    34    35   ar
    37    35    26   ar
    38    34    29   ar
    39     6     1    1
    40     8     1    1
    41    17    12   ar
    42    22    15    1
    43     9    10    1
    44    18    23    1
@<TRIPOS>MOLECULE
*****
 39 44 0 0 0
SMALL
GASTEIGER

@<TRIPOS>ATOM
      1 C         142.2242  138.1341  163.6106 C.3     1  UNL1        0.0932
      2 C         142.7886  138.1695  162.2212 C.3     1  UNL1        0.0286
      3 C         143.7863  139.2239  161.8436 C.3     1  UNL1        0.0193
      4 C         144.2198  140.2430  162.8553 C.3     1  UNL1        0.0700
      5 C         143.6555  140.2077  164.2447 C.3     1  UNL1        0.0193
      6 C         142.6577  139.1532  164.6223 C.3     1  UNL1        0.0286
      7 C         143.6706  139.6844  163.1089 C.3     1  UNL1        0.1562
      8 O         142.7684  138.7310  163.4504 O.3     1  UNL1       -0.3572
      9 N         145.2175  141.2974  162.4777 N.3     1  UNL1       -0.2926
     10 H         146.0037  140.8160  162.0412 H       1  UNL1        0.1236
     11 C         144.8208  142.4077  161.5504 C.3     1  UNL1        0.1152
     12 C         143.4135  142.9267  161.5608 C.ar    1  UNL1        0.0765
     13 C         142.6511  143.0528  160.2751 C.ar    1  UNL1        0.0193
     14 C         141.2438  143.5718  160.2854 C.ar    1  UNL1        0.0411
     15 C         140.5989  143.9648  161.5814 C.ar    1  UNL1        0.1708
     16 C         141.3612  143.8388  162.8671 C.ar    1  UNL1        0.1682
     17 N         142.7686  143.3198  162.8568 N.ar    1  UNL1       -0.2304
     18 N         140.7163  144.2318  164.1631 N.am    1  UNL1       -0.2639
     19 C         139.3090  144.7508  164.1734 C.2     1  UNL1        0.2718
     20 O         138.6641  145.1439  165.4694 O.2     1  UNL1       -0.2707
     21 C         138.5466  144.8769  162.8877 C.3     1  UNL1        0.2898
     22 O         139.1915  144.4838  161.5917 O.3     1  UNL1       -0.4628
     23 H         141.2167  144.1491  165.0069 H       1  UNL1        0.1565
     24 C         141.2265  137.0797  163.9882 C.3     1  UNL1        0.0320
     25 C         139.7735  137.2736  163.6698 C.3     1  UNL1        0.0335
     26 C         139.1338  138.9996  159.5636 C.ar    1  UNL1        0.2250
     27 C         138.5779  140.3843  159.4103 C.ar    1  UNL1        0.0593
     28 C         138.2352  141.1937  160.6258 C.ar    1  UNL1        0.0254
     29 C         138.4484  140.6184  161.9946 C.ar    1  UNL1        0.0990
     30 N         138.1057  141.4278  163.2101 N.ar    1  UNL1       -0.2392
     31 C         138.3189  140.8525  164.5788 C.ar    1  UNL1        0.1353
     32 C         138.8749  139.4677  164.7321 C.ar    1  UNL1        0.1552
     33 C         139.2176  138.6583  163.5166 C.ar    1  UNL1        0.0326
     34 C         139.0043  139.2337  162.1478 C.ar    1  UNL1        0.1009
     35 N         139.3470  138.4243  160.9323 N.ar    1  UNL1       -0.2104
     36 C         140.5930  138.6269  157.4465 C.3     1  UNL1        0.2542
     37 O         139.4765  138.1902  158.3480 O.3     1  UNL1       -0.4561
     38 O         139.0881  138.8924  166.1009 O.3     1  UNL1       -0.4701
     39 C         139.3717  139.8007  167.2604 C.3     1  UNL1        0.2525
@<TRIPOS>BOND
     1    36    37    1
     2    37    26    1
     3    26    27   ar
     4    27    28   ar
     5    28    29   ar
     6    29    30   ar
     7    30    31   ar
     8    31    32   ar
     9    32    38    1
    10    38    39    1
    11    32    33   ar
    12    33    25    1
    13    25    24    1
    14    24     1    1
    15     1     2    1
    16     2     3    1
    17     3     4    1
    18     4     9    1
    19     9    11    1
    20    11    12    1
    21    12    13   ar
    22    13    14   ar
    23    14    15   ar
    24    15    16   ar
    25    16    17   ar
    26    16    18    1
    27    18    19   am
    28    19    20    2
    29    19    21    1
    30    21    22    1
    31     4     5    1
    32     5     6    1
    33     4     7    1
    34     7     8    1
    35    33    34   ar
    36    34    35   ar
    37    35    26   ar
    38    34    29   ar
    39     6     1    1
    40     8     1    1
    41    17    12   ar
    42    22    15    1
    43     9    10    1
    44    18    23    1
@<TRIPOS>MOLECULE
*****
 39 44 0 0 0
SMALL
GASTEIGER

@<TRIPOS>ATOM
      1 C         138.1529  139.9747  162.9082 C.3     1  UNL1        0.0932
      2 C         138.2389  140.6733  161.5836 C.3     1  UNL1        0.0286
      3 C         138.0525  142.1596  161.5060 C.3     1  UNL1        0.0193
      4 C         137.7801  142.9475  162.7531 C.3     1  UNL1        0.0700
      5 C         137.6941  142.2489  164.0777 C.3     1  UNL1        0.0193
      6 C         137.8805  140.7625  164.1552 C.3     1  UNL1        0.0286
      7 C         137.8753  142.1348  162.8455 C.3     1  UNL1        0.1562
      8 O         138.0438  140.7908  162.9157 O.3     1  UNL1       -0.3572
      9 N         137.5938  144.4338  162.6756 N.3     1  UNL1       -0.2926
     10 H         136.9787  144.6940  163.4466 H       1  UNL1        0.1236
     11 C         138.7843  145.3436  162.7454 C.3     1  UNL1        0.1152
     12 C         140.1693  144.7677  162.7466 C.ar    1  UNL1        0.0765
     13 C         140.8979  144.5692  164.0428 C.ar    1  UNL1        0.0193
     14 C         142.2829  143.9933  164.0441 C.ar    1  UNL1        0.0411
     15 C         142.9394  143.6158  162.7493 C.ar    1  UNL1        0.1708
     16 C         142.2109  143.8142  161.4532 C.ar    1  UNL1        0.1682
     17 N         140.8258  144.3902  161.4518 N.ar    1  UNL1       -0.2304
     18 N         142.8674  143.4368  160.1584 N.am    1  UNL1       -0.2639
     19 C         144.2524  142.8608  160.1596 C.2     1  UNL1        0.2718
     20 O         144.9089  142.4834  158.8648 O.2     1  UNL1       -0.2707
     21 C         144.9810  142.6624  161.4558 C.3     1  UNL1        0.2898
     22 O         144.3245  143.0399  162.7506 O.3     1  UNL1       -0.4628
     23 H         142.3892  143.5670  159.3077 H       1  UNL1        0.1565
     24 C         138.3392  138.4884  162.9857 C.3     1  UNL1        0.0320
     25 C         139.5505  137.9187  163.6627 C.3     1  UNL1        0.0335
     26 C         140.9943  140.1286  167.3071 C.ar    1  UNL1        0.2250
     27 C         142.2960  140.8728  167.2662 C.ar    1  UNL1        0.0593
     28 C         143.1164  140.8804  166.0105 C.ar    1  UNL1        0.0254
     29 C         142.6352  140.1438  164.7957 C.ar    1  UNL1        0.0990
     30 N         143.4557  140.1513  163.5400 N.ar    1  UNL1       -0.2392
     31 C         142.9744  139.4147  162.3252 C.ar    1  UNL1        0.1353
     32 C         141.6727  138.6704  162.3661 C.ar    1  UNL1        0.1552
     33 C         140.8522  138.6629  163.6218 C.ar    1  UNL1        0.0326
     34 C         141.3335  139.3996  164.8366 C.ar    1  UNL1        0.1009
     35 N         140.5130  139.3920  166.0923 N.ar    1  UNL1       -0.2104
     36 C         140.8203  139.8065  169.8793 C.3     1  UNL1        0.2542
     37 O         140.1738  140.1210  168.5628 O.3     1  UNL1       -0.4561
     38 O         141.1915  137.9338  161.1513 O.3     1  UNL1       -0.4701
     39 C         141.7454  138.2740  159.7995 C.3     1  UNL1        0.2525
@<TRIPOS>BOND
     1    36    37    1
     2    37    26    1
     3    26    27   ar
     4    27    28   ar
     5    28    29   ar
     6    29    30   ar
     7    30    31   ar
     8    31    32   ar
     9    32    38    1
    10    38    39    1
    11    32    33   ar
    12    33    25    1
    13    25    24    1
    14    24     1    1
    15     1     2    1
    16     2     3    1
    17     3     4    1
    18     4     9    1
    19     9    11    1
    20    11    12    1
    21    12    13   ar
    22    13    14   ar
    23    14    15   ar
    24    15    16   ar
    25    16    17   ar
    26    16    18    1
    27    18    19   am
    28    19    20    2
    29    19    21    1
    30    21    22    1
    31     4     5    1
    32     5     6    1
    33     4     7    1
    34     7     8    1
    35    33    34   ar
    36    34    35   ar
    37    35    26   ar
    38    34    29   ar
    39     6     1    1
    40     8     1    1
    41    17    12   ar
    42    22    15    1
    43     9    10    1
    44    18    23    1
