@<TRIPOS>MOLECULE
*****
 31 35 0 0 0
SMALL
GASTEIGER

@<TRIPOS>ATOM
      1 C         141.3475  138.8087  160.2947 C.ar    1  UNL1        0.2326
      2 N         142.0090  137.9935  159.2233 N.ar    1  UNL1       -0.2080
      3 C         142.3306  138.9071  158.0779 C.ar    1  UNL1        0.1232
      4 C         142.9851  138.6607  156.7508 C.ar    1  UNL1        0.0741
      5 C         143.1769  139.7942  155.7873 C.ar    1  UNL1        0.0062
      6 C         142.7142  141.1739  156.1507 C.ar    1  UNL1        0.0034
      7 C         142.0598  141.4202  157.4778 C.ar    1  UNL1        0.0391
      8 C         141.8680  140.2868  158.4413 C.ar    1  UNL1        0.1649
      9 O         141.2604  140.2260  159.8114 O.2     1  UNL1       -0.4345
     10 C         141.8428  137.8761  162.6686 C.ar    1  UNL1        0.1432
     11 C         141.3543  137.3640  163.9910 C.ar    1  UNL1        0.0371
     12 C         139.8819  137.2722  164.2622 C.ar    1  UNL1        0.0031
     13 C         138.8980  137.6926  163.2109 C.ar    1  UNL1        0.0004
     14 C         139.3865  138.2047  161.8884 C.ar    1  UNL1        0.0077
     15 C         140.8589  138.2965  161.6172 C.ar    1  UNL1        0.0874
     16 C         144.1001  139.1403  162.9069 C.3     1  UNL1        0.2525
     17 O         143.3153  137.9679  162.3973 O.3     1  UNL1       -0.4713
     18 C         143.4477  137.2809  156.3874 C.2     1  UNL1        0.2474
     19 O         144.7344  137.0940  155.6394 O.2     1  UNL1       -0.2701
     20 N         142.6236  136.0880  156.7719 N.am    1  UNL1       -0.3024
     21 H         141.7791  136.2107  157.2628 H       1  UNL1        0.1497
     22 C         143.0862  134.7082  156.4085 C.3     1  UNL1        0.0745
     23 C         142.6642  134.0943  155.1065 C.3     1  UNL1        0.0356
     24 C         143.1268  132.7145  154.7431 C.3     1  UNL1        0.0591
     25 C         143.5894  131.3347  154.3796 C.3     1  UNL1        0.0161
     26 C         144.4740  130.5687  155.3182 C.3     1  UNL1        0.0028
     27 C         144.8960  131.1825  156.6201 C.3     1  UNL1        0.0161
     28 C         144.4334  132.5623  156.9835 C.3     1  UNL1        0.0591
     29 C         143.9708  133.9422  157.3470 C.3     1  UNL1        0.0356
     30 N         143.5488  133.3283  156.0450 N.3     1  UNL1       -0.2740
     31 C         143.4073  134.0285  156.3987 C.3     1  UNL1        0.0896
@<TRIPOS>BOND
     1    16    17    1
     2    17    10    1
     3    10    11   ar
     4    11    12   ar
     5    12    13   ar
     6    13    14   ar
     7    14    15   ar
     8    15     1    1
     9     1     2   ar
    10     2     3   ar
    11     3     4   ar
    12     4    18    1
    13    18    19    2
    14    18    20   am
    15    22    20    1
    16    22    23    1
    17    24    23    1
    18    24    25    1
    19    25    26    1
    20    26    27    1
    21    28    27    1
    22    28    29    1
    23    28    30    1
    24    30    31    1
    25     4     5   ar
    26     5     6   ar
    27     6     7   ar
    28     7     8   ar
    29     8     9   ar
    30    15    10   ar
    31     9     1   ar
    32     8     3   ar
    33    29    22    1
    34    30    24    1
    35    20    21    1
@<TRIPOS>MOLECULE
*****
 31 35 0 0 0
SMALL
GASTEIGER

@<TRIPOS>ATOM
      1 C         143.5523  140.3266  159.9941 C.ar    1  UNL1        0.2326
      2 N         143.6751  139.1568  159.0633 N.ar    1  UNL1       -0.2080
      3 C         142.9422  139.4923  157.7981 C.ar    1  UNL1        0.1232
      4 C         142.7248  138.7217  156.5297 C.ar    1  UNL1        0.0741
      5 C         141.9316  139.3281  155.4103 C.ar    1  UNL1        0.0062
      6 C         141.3560  140.7052  155.5593 C.ar    1  UNL1        0.0034
      7 C         141.5734  141.4758  156.8277 C.ar    1  UNL1        0.0391
      8 C         142.3665  140.8694  157.9471 C.ar    1  UNL1        0.1649
      9 O         142.7436  141.3850  159.3043 O.2     1  UNL1       -0.4345
     10 C         143.9372  139.3008  162.3499 C.ar    1  UNL1        0.1432
     11 C         144.5206  139.3956  163.7285 C.ar    1  UNL1        0.0371
     12 C         145.3026  140.6110  164.1300 C.ar    1  UNL1        0.0031
     13 C         145.5011  141.7317  163.1529 C.ar    1  UNL1        0.0004
     14 C         144.9177  141.6369  161.7743 C.ar    1  UNL1        0.0077
     15 C         144.1357  140.4215  161.3728 C.ar    1  UNL1        0.0874
     16 C         141.8553  137.7715  162.6278 C.3     1  UNL1        0.2525
     17 O         143.1552  138.0853  161.9483 O.3     1  UNL1       -0.4713
     18 C         143.3005  137.3445  156.3808 C.2     1  UNL1        0.2474
     19 O         144.6640  137.1623  155.7828 O.2     1  UNL1       -0.2701
     20 N         142.5127  136.1497  156.8299 N.am    1  UNL1       -0.3024
     21 H         141.6177  136.2693  157.2224 H       1  UNL1        0.1497
     22 C         143.0883  134.7726  156.6810 C.3     1  UNL1        0.0745
     23 C         142.9289  134.0288  155.3881 C.3     1  UNL1        0.0356
     24 C         143.5046  132.6517  155.2392 C.3     1  UNL1        0.0591
     25 C         144.0802  131.2747  155.0903 C.3     1  UNL1        0.0161
     26 C         144.8153  130.6413  156.2342 C.3     1  UNL1        0.0028
     27 C         144.9747  131.3850  157.5270 C.3     1  UNL1        0.0161
     28 C         144.3990  132.7621  157.6759 C.3     1  UNL1        0.0591
     29 C         143.8234  134.1392  157.8249 C.3     1  UNL1        0.0356
     30 N         143.6640  133.3955  156.5320 N.3     1  UNL1       -0.2740
     31 C         143.4336  134.1138  156.7897 C.3     1  UNL1        0.0896
@<TRIPOS>BOND
     1    16    17    1
     2    17    10    1
     3    10    11   ar
     4    11    12   ar
     5    12    13   ar
     6    13    14   ar
     7    14    15   ar
     8    15     1    1
     9     1     2   ar
    10     2     3   ar
    11     3     4   ar
    12     4    18    1
    13    18    19    2
    14    18    20   am
    15    22    20    1
    16    22    23    1
    17    24    23    1
    18    24    25    1
    19    25    26    1
    20    26    27    1
    21    28    27    1
    22    28    29    1
    23    28    30    1
    24    30    31    1
    25     4     5   ar
    26     5     6   ar
    27     6     7   ar
    28     7     8   ar
    29     8     9   ar
    30    15    10   ar
    31     9     1   ar
    32     8     3   ar
    33    29    22    1
    34    30    24    1
    35    20    21    1
@<TRIPOS>MOLECULE
*****
 31 35 0 0 0
SMALL
GASTEIGER

@<TRIPOS>ATOM
      1 C         143.3941  134.6419  156.6191 C.ar    1  UNL1        0.2326
      2 N         143.1253  135.7012  157.6465 N.ar    1  UNL1       -0.2080
      3 C         142.9861  137.0136  156.9335 C.ar    1  UNL1        0.1232
      4 C         142.7166  138.4027  157.4314 C.ar    1  UNL1        0.0741
      5 C         142.6297  139.5435  156.4613 C.ar    1  UNL1        0.0062
      6 C         142.8124  139.2952  154.9933 C.ar    1  UNL1        0.0034
      7 C         143.0819  137.9061  154.4955 C.ar    1  UNL1        0.0391
      8 C         143.1688  136.7653  155.4655 C.ar    1  UNL1        0.1649
      9 O         143.4209  135.2995  155.2712 O.2     1  UNL1       -0.4345
     10 C         142.6277  132.1736  156.3535 C.ar    1  UNL1        0.1432
     11 C         142.8334  130.7130  156.6261 C.ar    1  UNL1        0.0371
     12 C         144.0113  130.2601  157.4369 C.ar    1  UNL1        0.0031
     13 C         144.9834  131.2677  157.9751 C.ar    1  UNL1        0.0004
     14 C         144.7777  132.7283  157.7025 C.ar    1  UNL1        0.0077
     15 C         143.5999  133.1812  156.8918 C.ar    1  UNL1        0.0874
     16 C         141.4469  132.4389  154.0545 C.3     1  UNL1        0.2525
     17 O         141.4498  132.6266  155.5427 O.3     1  UNL1       -0.4713
     18 C         142.5339  138.6510  158.8994 C.2     1  UNL1        0.2474
     19 O         141.6011  139.7284  159.3675 O.2     1  UNL1       -0.2701
     20 N         143.2840  137.8218  159.8993 N.am    1  UNL1       -0.3024
     21 H         143.8962  137.1146  159.5921 H       1  UNL1        0.1497
     22 C         143.1013  138.0700  161.3673 C.3     1  UNL1        0.0745
     23 C         144.1504  138.8151  162.1382 C.3     1  UNL1        0.0356
     24 C         143.9678  139.0633  163.6062 C.3     1  UNL1        0.0591
     25 C         143.7851  139.3115  165.0741 C.3     1  UNL1        0.0161
     26 C         142.5534  138.8147  165.7713 C.3     1  UNL1        0.0028
     27 C         141.5043  138.0696  165.0004 C.3     1  UNL1        0.0161
     28 C         141.6870  137.8214  163.5325 C.3     1  UNL1        0.0591
     29 C         141.8696  137.5731  162.0644 C.3     1  UNL1        0.0356
     30 N         142.9187  138.3182  162.8353 N.3     1  UNL1       -0.2740
     31 C         142.8436  138.0980  162.0729 C.3     1  UNL1        0.0896
@<TRIPOS>BOND
     1    16    17    1
     2    17    10    1
     3    10    11   ar
     4    11    12   ar
     5    12    13   ar
     6    13    14   ar
     7    14    15   ar
     8    15     1    1
     9     1     2   ar
    10     2     3   ar
    11     3     4   ar
    12     4    18    1
    13    18    19    2
    14    18    20   am
    15    22    20    1
    16    22    23    1
    17    24    23    1
    18    24    25    1
    19    25    26    1
    20    26    27    1
    21    28    27    1
    22    28    29    1
    23    28    30    1
    24    30    31    1
    25     4     5   ar
    26     5     6   ar
    27     6     7   ar
    28     7     8   ar
    29     8     9   ar
    30    15    10   ar
    31     9     1   ar
    32     8     3   ar
    33    29    22    1
    34    30    24    1
    35    20    21    1
@<TRIPOS>MOLECULE
*****
 31 35 0 0 0
SMALL
GASTEIGER

@<TRIPOS>ATOM
      1 C         141.3227  138.8069  160.4108 C.ar    1  UNL1        0.2326
      2 N         141.9767  137.9853  159.3397 N.ar    1  UNL1       -0.2080
      3 C         142.2294  138.8775  158.1606 C.ar    1  UNL1        0.1232
      4 C         142.8485  138.6170  156.8194 C.ar    1  UNL1        0.0741
      5 C         142.9698  139.7294  155.8205 C.ar    1  UNL1        0.0062
      6 C         142.4720  141.1023  156.1629 C.ar    1  UNL1        0.0034
      7 C         141.8529  141.3628  157.5041 C.ar    1  UNL1        0.0391
      8 C         141.7316  140.2504  158.5029 C.ar    1  UNL1        0.1649
      9 O         141.1712  140.2068  159.8936 O.2     1  UNL1       -0.4345
     10 C         139.4384  138.1242  162.0641 C.ar    1  UNL1        0.1432
     11 C         139.0108  137.6324  163.4151 C.ar    1  UNL1        0.0371
     12 C         140.0401  137.3313  164.4638 C.ar    1  UNL1        0.0031
     13 C         141.4969  137.5221  164.1616 C.ar    1  UNL1        0.0004
     14 C         141.9244  138.0139  162.8106 C.ar    1  UNL1        0.0077
     15 C         140.8951  138.3150  161.7619 C.ar    1  UNL1        0.0874
     16 C         137.7175  139.7563  161.0034 C.3     1  UNL1        0.2525
     17 O         138.4091  138.4253  161.0153 O.3     1  UNL1       -0.4713
     18 C         143.3464  137.2440  156.4770 C.2     1  UNL1        0.2474
     19 O         144.6223  137.0796  155.7057 O.2     1  UNL1       -0.2701
     20 N         142.5682  136.0355  156.9060 N.am    1  UNL1       -0.3024
     21 H         141.7308  136.1435  157.4122 H       1  UNL1        0.1497
     22 C         143.0660  134.6626  156.5637 C.3     1  UNL1        0.0745
     23 C         142.7316  134.0534  155.2343 C.3     1  UNL1        0.0356
     24 C         143.2294  132.6804  154.8920 C.3     1  UNL1        0.0591
     25 C         143.7272  131.3075  154.5497 C.3     1  UNL1        0.0161
     26 C         144.5593  130.5437  155.5367 C.3     1  UNL1        0.0028
     27 C         144.8936  131.1528  156.8660 C.3     1  UNL1        0.0161
     28 C         144.3958  132.5258  157.2083 C.3     1  UNL1        0.0591
     29 C         143.8981  133.8988  157.5507 C.3     1  UNL1        0.0356
     30 N         143.5637  133.2896  156.2213 N.3     1  UNL1       -0.2740
     31 C         143.3937  133.9861  156.5698 C.3     1  UNL1        0.0896
@<TRIPOS>BOND
     1    16    17    1
     2    17    10    1
     3    10    11   ar
     4    11    12   ar
     5    12    13   ar
     6    13    14   ar
     7    14    15   ar
     8    15     1    1
     9     1     2   ar
    10     2     3   ar
    11     3     4   ar
    12     4    18    1
    13    18    19    2
    14    18    20   am
    15    22    20    1
    16    22    23    1
    17    24    23    1
    18    24    25    1
    19    25    26    1
    20    26    27    1
    21    28    27    1
    22    28    29    1
    23    28    30    1
    24    30    31    1
    25     4     5   ar
    26     5     6   ar
    27     6     7   ar
    28     7     8   ar
    29     8     9   ar
    30    15    10   ar
    31     9     1   ar
    32     8     3   ar
    33    29    22    1
    34    30    24    1
    35    20    21    1
@<TRIPOS>MOLECULE
*****
 31 35 0 0 0
SMALL
GASTEIGER

@<TRIPOS>ATOM
      1 C         142.2628  139.1341  160.9927 C.ar    1  UNL1        0.2326
      2 N         142.6461  138.2673  159.8301 N.ar    1  UNL1       -0.2080
      3 C         142.3558  139.0272  158.5698 C.ar    1  UNL1        0.1232
      4 C         142.5312  138.6748  157.1223 C.ar    1  UNL1        0.0741
      5 C         142.1438  139.6589  156.0586 C.ar    1  UNL1        0.0062
      6 C         141.5812  140.9953  156.4423 C.ar    1  UNL1        0.0034
      7 C         141.4058  141.3477  157.8898 C.ar    1  UNL1        0.0391
      8 C         141.7931  140.3636  158.9535 C.ar    1  UNL1        0.1649
      9 O         141.7357  140.4297  160.4509 O.2     1  UNL1       -0.4345
     10 C         141.3710  137.8640  163.0764 C.ar    1  UNL1        0.1432
     11 C         141.4934  137.4993  164.5262 C.ar    1  UNL1        0.0371
     12 C         142.6299  138.0400  165.3422 C.ar    1  UNL1        0.0031
     13 C         143.6441  138.9454  164.7084 C.ar    1  UNL1        0.0004
     14 C         143.5218  139.3101  163.2586 C.ar    1  UNL1        0.0077
     15 C         142.3852  138.7694  162.4426 C.ar    1  UNL1        0.0874
     16 C         138.8997  138.0071  162.2876 C.3     1  UNL1        0.2525
     17 O         140.2345  137.3233  162.2603 O.3     1  UNL1       -0.4713
     18 C         143.0939  137.3383  156.7386 C.2     1  UNL1        0.2474
     19 O         144.3367  137.2598  155.9025 O.2     1  UNL1       -0.2701
     20 N         142.4137  136.0803  157.1912 N.am    1  UNL1       -0.3024
     21 H         141.5980  136.1318  157.7400 H       1  UNL1        0.1497
     22 C         142.9763  134.7438  156.8075 C.3     1  UNL1        0.0745
     23 C         143.8975  134.0207  157.7449 C.3     1  UNL1        0.0356
     24 C         144.4602  132.6843  157.3613 C.3     1  UNL1        0.0591
     25 C         145.0228  131.3478  156.9777 C.3     1  UNL1        0.0161
     26 C         144.6643  130.7343  155.6566 C.3     1  UNL1        0.0028
     27 C         143.7432  131.4573  154.7192 C.3     1  UNL1        0.0161
     28 C         143.1805  132.7938  155.1029 C.3     1  UNL1        0.0591
     29 C         142.6178  134.1303  155.4865 C.3     1  UNL1        0.0356
     30 N         143.5390  133.4073  156.4239 N.3     1  UNL1       -0.2740
     31 C         143.1539  134.1046  156.4541 C.3     1  UNL1        0.0896
@<TRIPOS>BOND
     1    16    17    1
     2    17    10    1
     3    10    11   ar
     4    11    12   ar
     5    12    13   ar
     6    13    14   ar
     7    14    15   ar
     8    15     1    1
     9     1     2   ar
    10     2     3   ar
    11     3     4   ar
    12     4    18    1
    13    18    19    2
    14    18    20   am
    15    22    20    1
    16    22    23    1
    17    24    23    1
    18    24    25    1
    19    25    26    1
    20    26    27    1
    21    28    27    1
    22    28    29    1
    23    28    30    1
    24    30    31    1
    25     4     5   ar
    26     5     6   ar
    27     6     7   ar
    28     7     8   ar
    29     8     9   ar
    30    15    10   ar
    31     9     1   ar
    32     8     3   ar
    33    29    22    1
    34    30    24    1
    35    20    21    1
@<TRIPOS>MOLECULE
*****
 31 35 0 0 0
SMALL
GASTEIGER

@<TRIPOS>ATOM
      1 C         142.9658  135.5090  156.0345 C.ar    1  UNL1        0.2326
      2 N         142.6516  136.4185  157.1851 N.ar    1  UNL1       -0.2080
      3 C         143.2064  137.7757  156.8681 C.ar    1  UNL1        0.1232
      4 C         143.1982  139.0668  157.6316 C.ar    1  UNL1        0.0741
      5 C         143.8471  140.2870  157.0485 C.ar    1  UNL1        0.0062
      6 C         144.5042  140.2161  155.7020 C.ar    1  UNL1        0.0034
      7 C         144.5124  138.9250  154.9385 C.ar    1  UNL1        0.0391
      8 C         143.8635  137.7048  155.5216 C.ar    1  UNL1        0.1649
      9 O         143.7148  136.3039  155.0064 O.2     1  UNL1       -0.4345
     10 C         143.3297  133.0372  156.7473 C.ar    1  UNL1        0.1432
     11 C         142.9599  131.5873  156.6431 C.ar    1  UNL1        0.0371
     12 C         141.8562  131.1591  155.7220 C.ar    1  UNL1        0.0031
     13 C         141.1223  132.1809  154.9051 C.ar    1  UNL1        0.0004
     14 C         141.4921  133.6308  155.0092 C.ar    1  UNL1        0.0077
     15 C         142.5959  134.0590  155.9303 C.ar    1  UNL1        0.0874
     16 C         145.4475  132.4655  158.1395 C.3     1  UNL1        0.2525
     17 O         144.4335  133.4654  157.6684 O.3     1  UNL1       -0.4713
     18 C         142.5411  139.1376  158.9781 C.2     1  UNL1        0.2474
     19 O         142.0869  140.4595  159.5224 O.2     1  UNL1       -0.2701
     20 N         142.3382  137.8866  159.7804 N.am    1  UNL1       -0.3024
     21 H         142.6363  137.0189  159.4232 H       1  UNL1        0.1497
     22 C         141.6810  137.9574  161.1269 C.3     1  UNL1        0.0745
     23 C         140.1855  138.0110  161.2298 C.3     1  UNL1        0.0356
     24 C         139.5284  138.0818  162.5763 C.3     1  UNL1        0.0591
     25 C         138.8713  138.1526  163.9228 C.3     1  UNL1        0.0161
     26 C         139.7097  138.1698  165.1665 C.3     1  UNL1        0.0028
     27 C         141.2051  138.1162  165.0637 C.3     1  UNL1        0.0161
     28 C         141.8622  138.0454  163.7172 C.3     1  UNL1        0.0591
     29 C         142.5194  137.9745  162.3706 C.3     1  UNL1        0.0356
     30 N         141.0239  138.0282  162.4735 N.3     1  UNL1       -0.2740
     31 C         141.5360  137.9889  161.8638 C.3     1  UNL1        0.0896
@<TRIPOS>BOND
     1    16    17    1
     2    17    10    1
     3    10    11   ar
     4    11    12   ar
     5    12    13   ar
     6    13    14   ar
     7    14    15   ar
     8    15     1    1
     9     1     2   ar
    10     2     3   ar
    11     3     4   ar
    12     4    18    1
    13    18    19    2
    14    18    20   am
    15    22    20    1
    16    22    23    1
    17    24    23    1
    18    24    25    1
    19    25    26    1
    20    26    27    1
    21    28    27    1
    22    28    29    1
    23    28    30    1
    24    30    31    1
    25     4     5   ar
    26     5     6   ar
    27     6     7   ar
    28     7     8   ar
    29     8     9   ar
    30    15    10   ar
    31     9     1   ar
    32     8     3   ar
    33    29    22    1
    34    30    24    1
    35    20    21    1
@<TRIPOS>MOLECULE
*****
 31 35 0 0 0
SMALL
GASTEIGER

@<TRIPOS>ATOM
      1 C         138.5777  140.1723  159.2382 C.ar    1  UNL1        0.2326
      2 N         137.4306  140.1586  158.2718 N.ar    1  UNL1       -0.2080
      3 C         137.9219  140.6992  156.9616 C.ar    1  UNL1        0.1232
      4 C         137.2357  140.9197  155.6461 C.ar    1  UNL1        0.0741
      5 C         138.0001  141.4878  154.4874 C.ar    1  UNL1        0.0062
      6 C         139.4507  141.8355  154.6441 C.ar    1  UNL1        0.0034
      7 C         140.1370  141.6151  155.9596 C.ar    1  UNL1        0.0391
      8 C         139.3726  141.0469  157.1183 C.ar    1  UNL1        0.1649
      9 O         139.7779  140.7213  158.5253 O.2     1  UNL1       -0.4345
     10 C         138.0229  140.6410  161.7327 C.ar    1  UNL1        0.1432
     11 C         137.9777  140.1857  163.1612 C.ar    1  UNL1        0.0371
     12 C         138.4423  138.8064  163.5237 C.ar    1  UNL1        0.0031
     13 C         138.9520  137.8823  162.4578 C.ar    1  UNL1        0.0004
     14 C         138.9971  138.3376  161.0293 C.ar    1  UNL1        0.0077
     15 C         138.5326  139.7169  160.6668 C.ar    1  UNL1        0.0874
     16 C         138.2485  143.2203  161.9480 C.3     1  UNL1        0.2525
     17 O         137.5583  142.0205  161.3701 O.3     1  UNL1       -0.4713
     18 C         135.7849  140.5719  155.4895 C.2     1  UNL1        0.2474
     19 O         135.1942  140.4184  154.1193 O.2     1  UNL1       -0.2701
     20 N         134.9249  140.3777  156.7030 N.am    1  UNL1       -0.3024
     21 H         135.3127  140.4784  157.6024 H       1  UNL1        0.1497
     22 C         133.4743  140.0300  156.5464 C.3     1  UNL1        0.0745
     23 C         132.9953  138.6461  156.8718 C.3     1  UNL1        0.0356
     24 C         131.5446  138.2984  156.7152 C.3     1  UNL1        0.0591
     25 C         130.0940  137.9507  156.5585 C.3     1  UNL1        0.0161
     26 C         129.1222  138.9867  156.0766 C.3     1  UNL1        0.0028
     27 C         129.6010  140.3705  155.7513 C.3     1  UNL1        0.0161
     28 C         131.0517  140.7182  155.9079 C.3     1  UNL1        0.0591
     29 C         132.5025  141.0660  156.0645 C.3     1  UNL1        0.0356
     30 N         132.0235  139.6822  156.3898 N.3     1  UNL1       -0.2740
     31 C         132.7350  140.0411  156.4107 C.3     1  UNL1        0.0896
@<TRIPOS>BOND
     1    16    17    1
     2    17    10    1
     3    10    11   ar
     4    11    12   ar
     5    12    13   ar
     6    13    14   ar
     7    14    15   ar
     8    15     1    1
     9     1     2   ar
    10     2     3   ar
    11     3     4   ar
    12     4    18    1
    13    18    19    2
    14    18    20   am
    15    22    20    1
    16    22    23    1
    17    24    23    1
    18    24    25    1
    19    25    26    1
    20    26    27    1
    21    28    27    1
    22    28    29    1
    23    28    30    1
    24    30    31    1
    25     4     5   ar
    26     5     6   ar
    27     6     7   ar
    28     7     8   ar
    29     8     9   ar
    30    15    10   ar
    31     9     1   ar
    32     8     3   ar
    33    29    22    1
    34    30    24    1
    35    20    21    1
@<TRIPOS>MOLECULE
*****
 31 35 0 0 0
SMALL
GASTEIGER

@<TRIPOS>ATOM
      1 C         140.1169  141.7604  161.0210 C.ar    1  UNL1        0.2326
      2 N         140.2202  141.4831  162.4915 N.ar    1  UNL1       -0.2080
      3 C         139.6379  140.1249  162.7491 C.ar    1  UNL1        0.1232
      4 C         139.4696  139.3274  164.0083 C.ar    1  UNL1        0.0741
      5 C         138.8381  137.9678  163.9562 C.ar    1  UNL1        0.0062
      6 C         138.3749  137.4058  162.6450 C.ar    1  UNL1        0.0034
      7 C         138.5432  138.2033  161.3857 C.ar    1  UNL1        0.0391
      8 C         139.1747  139.5628  161.4378 C.ar    1  UNL1        0.1649
      9 O         139.4707  140.5736  160.3698 O.2     1  UNL1       -0.4345
     10 C         139.9269  144.3218  160.6296 C.ar    1  UNL1        0.1432
     11 C         140.3886  145.5672  159.9327 C.ar    1  UNL1        0.0371
     12 C         141.5021  145.4966  158.9301 C.ar    1  UNL1        0.0031
     13 C         142.1538  144.1806  158.6244 C.ar    1  UNL1        0.0004
     14 C         141.6921  142.9352  159.3214 C.ar    1  UNL1        0.0077
     15 C         140.5787  143.0058  160.3240 C.ar    1  UNL1        0.0874
     16 C         139.0696  144.9544  162.9992 C.3     1  UNL1        0.2525
     17 O         138.8134  144.3924  161.6323 O.3     1  UNL1       -0.4713
     18 C         139.9329  139.8895  165.3196 C.2     1  UNL1        0.2474
     19 O         139.4575  139.2819  166.6060 O.2     1  UNL1       -0.2701
     20 N         140.8716  141.0592  165.3445 N.am    1  UNL1       -0.3024
     21 H         141.1836  141.4580  164.5002 H       1  UNL1        0.1497
     22 C         141.3348  141.6213  166.6557 C.3     1  UNL1        0.0745
     23 C         140.4115  142.4744  167.4742 C.3     1  UNL1        0.0356
     24 C         140.8748  143.0365  168.7854 C.3     1  UNL1        0.0591
     25 C         141.3381  143.5987  170.0966 C.3     1  UNL1        0.0161
     26 C         142.7246  143.3077  170.5895 C.3     1  UNL1        0.0028
     27 C         143.6479  142.4547  169.7711 C.3     1  UNL1        0.0161
     28 C         143.1846  141.8926  168.4598 C.3     1  UNL1        0.0591
     29 C         142.7214  141.3304  167.1485 C.3     1  UNL1        0.0356
     30 N         141.7981  142.1835  167.9670 N.3     1  UNL1       -0.2740
     31 C         141.7307  141.8087  167.2667 C.3     1  UNL1        0.0896
@<TRIPOS>BOND
     1    16    17    1
     2    17    10    1
     3    10    11   ar
     4    11    12   ar
     5    12    13   ar
     6    13    14   ar
     7    14    15   ar
     8    15     1    1
     9     1     2   ar
    10     2     3   ar
    11     3     4   ar
    12     4    18    1
    13    18    19    2
    14    18    20   am
    15    22    20    1
    16    22    23    1
    17    24    23    1
    18    24    25    1
    19    25    26    1
    20    26    27    1
    21    28    27    1
    22    28    29    1
    23    28    30    1
    24    30    31    1
    25     4     5   ar
    26     5     6   ar
    27     6     7   ar
    28     7     8   ar
    29     8     9   ar
    30    15    10   ar
    31     9     1   ar
    32     8     3   ar
    33    29    22    1
    34    30    24    1
    35    20    21    1
@<TRIPOS>MOLECULE
*****
 31 35 0 0 0
SMALL
GASTEIGER

@<TRIPOS>ATOM
      1 C         142.6869  134.5653  156.5032 C.ar    1  UNL1        0.2326
      2 N         142.6291  135.7775  157.3849 N.ar    1  UNL1       -0.2080
      3 C         141.8988  136.8567  156.6418 C.ar    1  UNL1        0.1232
      4 C         141.5414  138.2654  157.0130 C.ar    1  UNL1        0.0741
      5 C         140.7903  139.1290  156.0434 C.ar    1  UNL1        0.0062
      6 C         140.3967  138.5838  154.7026 C.ar    1  UNL1        0.0034
      7 C         140.7541  137.1751  154.3314 C.ar    1  UNL1        0.0391
      8 C         141.5052  136.3115  155.3010 C.ar    1  UNL1        0.1649
      9 O         141.9922  134.8954  155.2153 O.2     1  UNL1       -0.4345
     10 C         142.7051  131.9701  156.3834 C.ar    1  UNL1        0.1432
     11 C         143.3450  130.6582  156.7289 C.ar    1  UNL1        0.0371
     12 C         144.6067  130.6296  157.5396 C.ar    1  UNL1        0.0031
     13 C         145.2285  131.9130  158.0049 C.ar    1  UNL1        0.0004
     14 C         144.5885  133.2249  157.6594 C.ar    1  UNL1        0.0077
     15 C         143.3269  133.2534  156.8487 C.ar    1  UNL1        0.0874
     16 C         140.9820  130.7623  154.8595 C.3     1  UNL1        0.2525
     17 O         141.4434  131.9987  155.5727 O.3     1  UNL1       -0.4713
     18 C         141.9350  138.8106  158.3539 C.2     1  UNL1        0.2474
     19 O         140.9252  139.5327  159.1958 O.2     1  UNL1       -0.2701
     20 N         143.3385  138.6336  158.8528 N.am    1  UNL1       -0.3024
     21 H         144.0013  138.1597  158.3003 H       1  UNL1        0.1497
     22 C         143.7322  139.1787  160.1936 C.3     1  UNL1        0.0745
     23 C         143.7490  138.2788  161.3937 C.3     1  UNL1        0.0356
     24 C         144.1426  138.8239  162.7345 C.3     1  UNL1        0.0591
     25 C         144.5363  139.3690  164.0753 C.3     1  UNL1        0.0161
     26 C         144.9133  140.8141  164.2162 C.3     1  UNL1        0.0028
     27 C         144.8965  141.7140  163.0162 C.3     1  UNL1        0.0161
     28 C         144.5028  141.1688  161.6754 C.3     1  UNL1        0.0591
     29 C         144.1091  140.6237  160.3345 C.3     1  UNL1        0.0356
     30 N         144.1259  139.7238  161.5346 N.3     1  UNL1       -0.2740
     31 C         143.9496  139.6168  160.7645 C.3     1  UNL1        0.0896
@<TRIPOS>BOND
     1    16    17    1
     2    17    10    1
     3    10    11   ar
     4    11    12   ar
     5    12    13   ar
     6    13    14   ar
     7    14    15   ar
     8    15     1    1
     9     1     2   ar
    10     2     3   ar
    11     3     4   ar
    12     4    18    1
    13    18    19    2
    14    18    20   am
    15    22    20    1
    16    22    23    1
    17    24    23    1
    18    24    25    1
    19    25    26    1
    20    26    27    1
    21    28    27    1
    22    28    29    1
    23    28    30    1
    24    30    31    1
    25     4     5   ar
    26     5     6   ar
    27     6     7   ar
    28     7     8   ar
    29     8     9   ar
    30    15    10   ar
    31     9     1   ar
    32     8     3   ar
    33    29    22    1
    34    30    24    1
    35    20    21    1
