@<TRIPOS>MOLECULE
*****
 35 38 0 0 0
SMALL
GASTEIGER

@<TRIPOS>ATOM
      1 N         141.0854  140.7980  159.2165 N.3     1  UNL1       -0.2673
      2 C         141.7756  141.9500  159.8845 C.3     1  UNL1        0.1035
      3 C         141.0263  142.8110  160.8578 C.3     1  UNL1        0.1470
      4 C         140.2770  143.6720  161.8311 C.3     1  UNL1        0.1035
      5 N         138.8375  143.3809  162.1364 N.3     1  UNL1       -0.2684
      6 C         138.1473  142.2287  161.4683 C.3     1  UNL1        0.1035
      7 C         138.8966  141.3678  160.4950 C.3     1  UNL1        0.1470
      8 C         139.6459  140.5068  159.5217 C.3     1  UNL1        0.1035
      9 O         139.5868  142.5198  161.1630 O.3     1  UNL1       -0.3530
     10 C         141.8346  139.9369  158.2431 C.3     1  UNL1        0.0913
     11 C         142.9504  139.0574  158.7242 C.3     1  UNL1        0.1087
     12 N         142.6593  137.9193  159.6571 N.3     1  UNL1       -0.1780
     13 H         141.7176  137.5936  159.4394 H       1  UNL1        0.1488
     14 S         142.7110  138.1338  161.1408 S.O2    1  UNL1        0.0603
     15 O         141.2985  137.6435  161.2609 O.2     1  UNL1       -0.1530
     16 O         144.1235  138.6240  161.0207 O.2     1  UNL1       -0.1530
     17 C         142.8661  138.7771  165.5919 C.ar    1  UNL1        0.0685
     18 C         143.8126  139.5169  164.6938 C.ar    1  UNL1        0.0116
     19 C         143.7609  139.3025  163.2100 C.ar    1  UNL1        0.0206
     20 C         142.7627  138.3482  162.6245 C.ar    1  UNL1        0.1220
     21 C         141.8162  137.6083  163.5227 C.ar    1  UNL1        0.0206
     22 C         141.8679  137.8228  165.0063 C.ar    1  UNL1        0.0116
     23 N         142.9695  139.2059  168.5593 N.1     1  UNL1       -0.1908
     24 C         142.9178  138.9915  167.0755 C.1     1  UNL1        0.1004
     25 C         138.0883  144.2418  163.1097 C.3     1  UNL1        0.0761
     26 C         138.1548  143.9458  164.5787 C.3     1  UNL1        0.0646
     27 C         139.4828  143.8963  165.2744 C.3     1  UNL1        0.2068
     28 O         140.3241  142.6569  165.1972 O.3     1  UNL1       -0.4753
     29 C         139.7007  141.3118  165.4256 C.ar    1  UNL1        0.1408
     30 C         139.5235  140.7947  166.8224 C.ar    1  UNL1        0.0370
     31 C         138.9001  139.4496  167.0507 C.ar    1  UNL1        0.0054
     32 C         138.4540  138.6217  165.8821 C.ar    1  UNL1        0.0298
     33 C         138.6312  139.1388  164.4853 C.ar    1  UNL1        0.1432
     34 F         138.1850  138.3108  163.3168 F       1  UNL1       -0.2041
     35 C         139.2546  140.4838  164.2570 C.ar    1  UNL1        0.0665
@<TRIPOS>BOND
     1    23    24    3
     2    24    17    1
     3    17    18   ar
     4    18    19   ar
     5    19    20   ar
     6    20    14    1
     7    14    15    2
     8    14    16    2
     9    14    12    1
    10    12    11    1
    11    11    10    1
    12    10     1    1
    13     1     2    1
    14     2     3    1
    15     3     4    1
    16     4     5    1
    17     5    25    1
    18    25    26    1
    19    26    27    1
    20    27    28    1
    21    28    29    1
    22    29    30   ar
    23    30    31   ar
    24    31    32   ar
    25    32    33   ar
    26    33    34    1
    27    33    35   ar
    28     5     6    1
    29     6     7    1
    30     7     8    1
    31     7     9    1
    32    20    21   ar
    33    21    22   ar
    34    22    17   ar
    35     8     1    1
    36     9     3    1
    37    35    29   ar
    38    12    13    1
@<TRIPOS>MOLECULE
*****
 35 38 0 0 0
SMALL
GASTEIGER

@<TRIPOS>ATOM
      1 N         139.4837  137.5787  164.3699 N.3     1  UNL1       -0.2673
      2 C         138.8715  137.9123  163.0418 C.3     1  UNL1        0.1035
      3 C         139.7499  138.1453  161.8485 C.3     1  UNL1        0.1470
      4 C         140.6284  138.3784  160.6551 C.3     1  UNL1        0.1035
      5 N         142.1189  138.2778  160.7899 N.3     1  UNL1       -0.2684
      6 C         142.7310  137.9442  162.1181 C.3     1  UNL1        0.1035
      7 C         141.8526  137.7111  163.3114 C.3     1  UNL1        0.1470
      8 C         140.9742  137.4781  164.5047 C.3     1  UNL1        0.1035
      9 O         141.2405  138.0448  161.9833 O.3     1  UNL1       -0.3530
     10 C         138.6053  137.3456  165.5633 C.3     1  UNL1        0.0913
     11 C         138.1721  138.5032  166.4132 C.3     1  UNL1        0.1087
     12 N         139.1301  139.6203  166.7038 N.3     1  UNL1       -0.1780
     13 H         138.9028  139.9683  167.6353 H       1  UNL1        0.1488
     14 S         139.1873  140.8141  165.7975 S.O2    1  UNL1        0.0603
     15 O         140.5467  141.1548  166.3320 O.2     1  UNL1       -0.1530
     16 O         137.8278  140.4734  165.2630 O.2     1  UNL1       -0.1530
     17 C         139.3589  144.3955  163.0784 C.ar    1  UNL1        0.0685
     18 C         139.6482  144.5506  164.5420 C.ar    1  UNL1        0.0116
     19 C         139.5910  143.3567  165.4484 C.ar    1  UNL1        0.0206
     20 C         139.2445  142.0079  164.8911 C.ar    1  UNL1        0.1220
     21 C         138.9552  141.8529  163.4274 C.ar    1  UNL1        0.0206
     22 C         139.0124  143.0467  162.5211 C.ar    1  UNL1        0.0116
     23 N         139.4732  146.7832  161.2656 N.1     1  UNL1       -0.1908
     24 C         139.4160  145.5894  162.1720 C.1     1  UNL1        0.1004
     25 C         142.9973  138.5108  159.5966 C.3     1  UNL1        0.0761
     26 C         143.8005  139.7734  159.4916 C.3     1  UNL1        0.0646
     27 C         143.4923  140.9351  160.3890 C.3     1  UNL1        0.2068
     28 O         144.4211  141.2798  161.5152 O.3     1  UNL1       -0.4753
     29 C         144.1312  142.4625  162.3912 C.ar    1  UNL1        0.1408
     30 C         143.2458  143.5659  161.8928 C.ar    1  UNL1        0.0370
     31 C         142.9559  144.7485  162.7688 C.ar    1  UNL1        0.0054
     32 C         143.5515  144.8277  164.1433 C.ar    1  UNL1        0.0298
     33 C         144.4369  143.7243  164.6417 C.ar    1  UNL1        0.1432
     34 F         145.0325  143.8034  166.0161 F       1  UNL1       -0.2041
     35 C         144.7268  142.5417  163.7657 C.ar    1  UNL1        0.0665
@<TRIPOS>BOND
     1    23    24    3
     2    24    17    1
     3    17    18   ar
     4    18    19   ar
     5    19    20   ar
     6    20    14    1
     7    14    15    2
     8    14    16    2
     9    14    12    1
    10    12    11    1
    11    11    10    1
    12    10     1    1
    13     1     2    1
    14     2     3    1
    15     3     4    1
    16     4     5    1
    17     5    25    1
    18    25    26    1
    19    26    27    1
    20    27    28    1
    21    28    29    1
    22    29    30   ar
    23    30    31   ar
    24    31    32   ar
    25    32    33   ar
    26    33    34    1
    27    33    35   ar
    28     5     6    1
    29     6     7    1
    30     7     8    1
    31     7     9    1
    32    20    21   ar
    33    21    22   ar
    34    22    17   ar
    35     8     1    1
    36     9     3    1
    37    35    29   ar
    38    12    13    1
@<TRIPOS>MOLECULE
*****
 35 38 0 0 0
SMALL
GASTEIGER

@<TRIPOS>ATOM
      1 N         140.8965  140.7338  159.2589 N.3     1  UNL1       -0.2673
      2 C         139.7516  140.1754  160.0509 C.3     1  UNL1        0.1035
      3 C         138.9553  141.0718  160.9522 C.3     1  UNL1        0.1470
      4 C         138.1590  141.9682  161.8535 C.3     1  UNL1        0.1035
      5 N         138.5075  143.4230  161.9627 N.3     1  UNL1       -0.2684
      6 C         139.6525  143.9815  161.1706 C.3     1  UNL1        0.1035
      7 C         140.4487  143.0851  160.2694 C.3     1  UNL1        0.1470
      8 C         141.2450  142.1887  159.3681 C.3     1  UNL1        0.1035
      9 O         139.3039  142.5266  161.0614 O.3     1  UNL1       -0.3530
     10 C         141.6928  139.8374  158.3575 C.3     1  UNL1        0.0913
     11 C         141.9539  138.4148  158.7549 C.3     1  UNL1        0.1087
     12 N         143.1664  138.0740  159.5696 N.3     1  UNL1       -0.1780
     13 H         143.3803  137.0942  159.3837 H       1  UNL1        0.1488
     14 S         143.1377  138.2355  161.0606 S.O2    1  UNL1        0.0603
     15 O         141.8955  137.3975  161.1275 O.2     1  UNL1       -0.1530
     16 O         144.3800  139.0735  160.9938 O.2     1  UNL1       -0.1530
     17 C         143.0517  138.7200  165.5336 C.ar    1  UNL1        0.0685
     18 C         141.8887  138.0916  164.8248 C.ar    1  UNL1        0.0116
     19 C         141.9173  137.9301  163.3338 C.ar    1  UNL1        0.0206
     20 C         143.1090  138.3970  162.5516 C.ar    1  UNL1        0.1220
     21 C         144.2721  139.0254  163.2605 C.ar    1  UNL1        0.0206
     22 C         144.2435  139.1868  164.7514 C.ar    1  UNL1        0.0116
     23 N         142.9943  139.0429  168.5157 N.1     1  UNL1       -0.1908
     24 C         143.0231  138.8815  167.0246 C.1     1  UNL1        0.1004
     25 C         137.7112  144.3194  162.8640 C.3     1  UNL1        0.0761
     26 C         137.7416  144.1085  164.3489 C.3     1  UNL1        0.0646
     27 C         138.8260  144.7362  165.1735 C.3     1  UNL1        0.2068
     28 O         139.9994  143.9151  165.6195 O.3     1  UNL1       -0.4753
     29 C         141.0696  143.5408  164.6373 C.ar    1  UNL1        0.1408
     30 C         141.1324  142.1447  164.0923 C.ar    1  UNL1        0.0370
     31 C         142.2025  141.7705  163.1101 C.ar    1  UNL1        0.0054
     32 C         143.2098  142.7923  162.6729 C.ar    1  UNL1        0.0298
     33 C         143.1470  144.1883  163.2178 C.ar    1  UNL1        0.1432
     34 F         144.1544  145.2101  162.7806 F       1  UNL1       -0.2041
     35 C         142.0769  144.5626  164.2000 C.ar    1  UNL1        0.0665
@<TRIPOS>BOND
     1    23    24    3
     2    24    17    1
     3    17    18   ar
     4    18    19   ar
     5    19    20   ar
     6    20    14    1
     7    14    15    2
     8    14    16    2
     9    14    12    1
    10    12    11    1
    11    11    10    1
    12    10     1    1
    13     1     2    1
    14     2     3    1
    15     3     4    1
    16     4     5    1
    17     5    25    1
    18    25    26    1
    19    26    27    1
    20    27    28    1
    21    28    29    1
    22    29    30   ar
    23    30    31   ar
    24    31    32   ar
    25    32    33   ar
    26    33    34    1
    27    33    35   ar
    28     5     6    1
    29     6     7    1
    30     7     8    1
    31     7     9    1
    32    20    21   ar
    33    21    22   ar
    34    22    17   ar
    35     8     1    1
    36     9     3    1
    37    35    29   ar
    38    12    13    1
@<TRIPOS>MOLECULE
*****
 35 38 0 0 0
SMALL
GASTEIGER

@<TRIPOS>ATOM
      1 N         138.7638  140.6189  165.3898 N.3     1  UNL1       -0.2673
      2 C         138.0731  140.7887  164.0692 C.3     1  UNL1        0.1035
      3 C         138.2534  142.0551  163.2859 C.3     1  UNL1        0.1470
      4 C         138.4336  143.3217  162.5026 C.3     1  UNL1        0.1035
      5 N         139.3046  144.4183  163.0399 N.3     1  UNL1       -0.2684
      6 C         139.9953  144.2484  164.3606 C.3     1  UNL1        0.1035
      7 C         139.8151  142.9820  165.1439 C.3     1  UNL1        0.1470
      8 C         139.6348  141.7155  165.9271 C.3     1  UNL1        0.1035
      9 O         139.1244  143.1518  163.8233 O.3     1  UNL1       -0.3530
     10 C         138.5836  139.3523  166.1731 C.3     1  UNL1        0.0913
     11 C         138.5722  138.0290  165.4671 C.3     1  UNL1        0.1087
     12 N         139.8653  137.3703  165.0874 N.3     1  UNL1       -0.1780
     13 H         140.4917  137.4690  165.8863 H       1  UNL1        0.1488
     14 S         140.6226  137.8437  163.8822 S.O2    1  UNL1        0.0603
     15 O         141.8246  138.1055  164.7404 O.2     1  UNL1       -0.1530
     16 O         139.4206  137.5819  163.0240 O.2     1  UNL1       -0.1530
     17 C         142.8945  139.2639  160.2668 C.ar    1  UNL1        0.0685
     18 C         143.6081  138.5200  161.3565 C.ar    1  UNL1        0.0116
     19 C         142.8508  138.0466  162.5617 C.ar    1  UNL1        0.0206
     20 C         141.3799  138.3171  162.6771 C.ar    1  UNL1        0.1220
     21 C         140.6663  139.0611  161.5874 C.ar    1  UNL1        0.0206
     22 C         141.4236  139.5345  160.3823 C.ar    1  UNL1        0.0116
     23 N         144.4092  140.2107  157.8566 N.1     1  UNL1       -0.1908
     24 C         143.6518  139.7373  159.0617 C.1     1  UNL1        0.1004
     25 C         139.4849  145.6848  162.2567 C.3     1  UNL1        0.0761
     26 C         140.2604  145.6687  160.9728 C.3     1  UNL1        0.0646
     27 C         141.3058  144.6182  160.7412 C.3     1  UNL1        0.2068
     28 O         142.6561  144.7501  161.3807 O.3     1  UNL1       -0.4753
     29 C         143.0331  143.8597  162.5276 C.ar    1  UNL1        0.1408
     30 C         142.5804  142.4298  162.5472 C.ar    1  UNL1        0.0370
     31 C         142.9573  141.5396  163.6941 C.ar    1  UNL1        0.0054
     32 C         143.7869  142.0792  164.8213 C.ar    1  UNL1        0.0298
     33 C         144.2396  143.5090  164.8016 C.ar    1  UNL1        0.1432
     34 F         145.0692  144.0487  165.9288 F       1  UNL1       -0.2041
     35 C         143.8627  144.3993  163.6548 C.ar    1  UNL1        0.0665
@<TRIPOS>BOND
     1    23    24    3
     2    24    17    1
     3    17    18   ar
     4    18    19   ar
     5    19    20   ar
     6    20    14    1
     7    14    15    2
     8    14    16    2
     9    14    12    1
    10    12    11    1
    11    11    10    1
    12    10     1    1
    13     1     2    1
    14     2     3    1
    15     3     4    1
    16     4     5    1
    17     5    25    1
    18    25    26    1
    19    26    27    1
    20    27    28    1
    21    28    29    1
    22    29    30   ar
    23    30    31   ar
    24    31    32   ar
    25    32    33   ar
    26    33    34    1
    27    33    35   ar
    28     5     6    1
    29     6     7    1
    30     7     8    1
    31     7     9    1
    32    20    21   ar
    33    21    22   ar
    34    22    17   ar
    35     8     1    1
    36     9     3    1
    37    35    29   ar
    38    12    13    1
@<TRIPOS>MOLECULE
*****
 35 38 0 0 0
SMALL
GASTEIGER

@<TRIPOS>ATOM
      1 N         142.2952  143.8940  160.8685 N.3     1  UNL1       -0.2673
      2 C         142.2654  142.4737  160.3872 C.3     1  UNL1        0.1035
      3 C         142.9311  141.3956  161.1901 C.3     1  UNL1        0.1470
      4 C         143.5968  140.3175  161.9930 C.3     1  UNL1        0.1035
      5 N         144.2924  140.6599  163.2772 N.3     1  UNL1       -0.2684
      6 C         144.3222  142.0804  163.7584 C.3     1  UNL1        0.1035
      7 C         143.6565  143.1584  162.9555 C.3     1  UNL1        0.1470
      8 C         142.9908  144.2364  162.1526 C.3     1  UNL1        0.1035
      9 O         143.6266  141.7380  162.4743 O.3     1  UNL1       -0.3530
     10 C         141.6295  144.9721  160.0656 C.3     1  UNL1        0.0913
     11 C         140.1332  145.0225  159.9727 C.3     1  UNL1        0.1087
     12 N         139.3110  145.2194  161.2118 N.3     1  UNL1       -0.1780
     13 H         139.7844  145.9303  161.7694 H       1  UNL1        0.1488
     14 S         139.0421  144.0606  162.1254 S.O2    1  UNL1        0.0603
     15 O         138.3142  143.3569  161.0186 O.2     1  UNL1       -0.1530
     16 O         139.7700  144.7643  163.2322 O.2     1  UNL1       -0.1530
     17 C         138.2353  140.5841  164.8664 C.ar    1  UNL1        0.0685
     18 C         137.7366  140.5554  163.4520 C.ar    1  UNL1        0.0116
     19 C         138.0056  141.7143  162.5383 C.ar    1  UNL1        0.0206
     20 C         138.7732  142.9018  163.0390 C.ar    1  UNL1        0.1220
     21 C         139.2718  142.9304  164.4535 C.ar    1  UNL1        0.0206
     22 C         139.0029  141.7716  165.3671 C.ar    1  UNL1        0.0116
     23 N         137.6974  138.2664  166.6937 N.1     1  UNL1       -0.1908
     24 C         137.9664  139.4253  165.7800 C.1     1  UNL1        0.1004
     25 C         144.9581  139.5819  164.0801 C.3     1  UNL1        0.0761
     26 C         144.2659  139.0034  165.2786 C.3     1  UNL1        0.0646
     27 C         142.7687  139.0297  165.3652 C.3     1  UNL1        0.2068
     28 O         142.0919  138.8893  166.6964 O.3     1  UNL1       -0.4753
     29 C         141.5867  140.1063  167.4131 C.ar    1  UNL1        0.1408
     30 C         142.2154  141.4435  167.1553 C.ar    1  UNL1        0.0370
     31 C         141.7102  142.6605  167.8720 C.ar    1  UNL1        0.0054
     32 C         140.5762  142.5402  168.8465 C.ar    1  UNL1        0.0298
     33 C         139.9475  141.2030  169.1044 C.ar    1  UNL1        0.1432
     34 F         138.8136  141.0828  170.0789 F       1  UNL1       -0.2041
     35 C         140.4527  139.9861  168.3877 C.ar    1  UNL1        0.0665
@<TRIPOS>BOND
     1    23    24    3
     2    24    17    1
     3    17    18   ar
     4    18    19   ar
     5    19    20   ar
     6    20    14    1
     7    14    15    2
     8    14    16    2
     9    14    12    1
    10    12    11    1
    11    11    10    1
    12    10     1    1
    13     1     2    1
    14     2     3    1
    15     3     4    1
    16     4     5    1
    17     5    25    1
    18    25    26    1
    19    26    27    1
    20    27    28    1
    21    28    29    1
    22    29    30   ar
    23    30    31   ar
    24    31    32   ar
    25    32    33   ar
    26    33    34    1
    27    33    35   ar
    28     5     6    1
    29     6     7    1
    30     7     8    1
    31     7     9    1
    32    20    21   ar
    33    21    22   ar
    34    22    17   ar
    35     8     1    1
    36     9     3    1
    37    35    29   ar
    38    12    13    1
@<TRIPOS>MOLECULE
*****
 35 38 0 0 0
SMALL
GASTEIGER

@<TRIPOS>ATOM
      1 N         143.0892  138.6839  165.4703 N.3     1  UNL1       -0.2673
      2 C         141.9239  137.9777  164.8431 C.3     1  UNL1        0.1035
      3 C         141.8412  137.8462  163.3512 C.3     1  UNL1        0.1470
      4 C         141.7585  137.7147  161.8592 C.3     1  UNL1        0.1035
      5 N         142.8410  138.2894  160.9945 N.3     1  UNL1       -0.2684
      6 C         144.0063  138.9957  161.6217 C.3     1  UNL1        0.1035
      7 C         144.0890  139.1272  163.1136 C.3     1  UNL1        0.1470
      8 C         144.1717  139.2587  164.6055 C.3     1  UNL1        0.1035
      9 O         142.9238  138.4210  162.4865 O.3     1  UNL1       -0.3530
     10 C         143.1719  138.8155  166.9623 C.3     1  UNL1        0.0913
     11 C         142.1697  139.6547  167.6979 C.3     1  UNL1        0.1087
     12 N         142.3720  141.1367  167.8120 N.3     1  UNL1       -0.1780
     13 H         141.9127  141.4310  168.6739 H       1  UNL1        0.1488
     14 S         141.8792  142.0467  166.7262 S.O2    1  UNL1        0.0603
     15 O         143.2732  142.5629  166.5262 O.2     1  UNL1       -0.1530
     16 O         140.4851  141.5304  166.9262 O.2     1  UNL1       -0.1530
     17 C         140.4007  144.7766  163.4687 C.ar    1  UNL1        0.0685
     18 C         141.8102  144.2645  163.4358 C.ar    1  UNL1        0.0116
     19 C         142.3030  143.3545  164.5217 C.ar    1  UNL1        0.0206
     20 C         141.3864  142.9566  165.6404 C.ar    1  UNL1        0.1220
     21 C         139.9769  143.4688  165.6732 C.ar    1  UNL1        0.0206
     22 C         139.4841  144.3788  164.5874 C.ar    1  UNL1        0.0116
     23 N         139.4152  146.5966  161.2969 N.1     1  UNL1       -0.1908
     24 C         139.9079  145.6866  162.3829 C.1     1  UNL1        0.1004
     25 C         142.7583  138.1580  159.5026 C.3     1  UNL1        0.0761
     26 C         142.6235  139.3834  158.6480 C.3     1  UNL1        0.0646
     27 C         141.2661  139.9572  158.3685 C.3     1  UNL1        0.2068
     28 O         140.6873  140.9944  159.2846 O.3     1  UNL1       -0.4753
     29 C         139.9724  140.5756  160.5351 C.ar    1  UNL1        0.1408
     30 C         140.3507  141.1817  161.8540 C.ar    1  UNL1        0.0370
     31 C         139.6358  140.7629  163.1044 C.ar    1  UNL1        0.0054
     32 C         138.5427  139.7381  163.0359 C.ar    1  UNL1        0.0298
     33 C         138.1644  139.1320  161.7170 C.ar    1  UNL1        0.1432
     34 F         137.0712  138.1072  161.6486 F       1  UNL1       -0.2041
     35 C         138.8792  139.5508  160.4666 C.ar    1  UNL1        0.0665
@<TRIPOS>BOND
     1    23    24    3
     2    24    17    1
     3    17    18   ar
     4    18    19   ar
     5    19    20   ar
     6    20    14    1
     7    14    15    2
     8    14    16    2
     9    14    12    1
    10    12    11    1
    11    11    10    1
    12    10     1    1
    13     1     2    1
    14     2     3    1
    15     3     4    1
    16     4     5    1
    17     5    25    1
    18    25    26    1
    19    26    27    1
    20    27    28    1
    21    28    29    1
    22    29    30   ar
    23    30    31   ar
    24    31    32   ar
    25    32    33   ar
    26    33    34    1
    27    33    35   ar
    28     5     6    1
    29     6     7    1
    30     7     8    1
    31     7     9    1
    32    20    21   ar
    33    21    22   ar
    34    22    17   ar
    35     8     1    1
    36     9     3    1
    37    35    29   ar
    38    12    13    1
@<TRIPOS>MOLECULE
*****
 35 38 0 0 0
SMALL
GASTEIGER

@<TRIPOS>ATOM
      1 N         139.6137  142.7092  159.7995 N.3     1  UNL1       -0.2673
      2 C         138.2413  142.2794  160.2259 C.3     1  UNL1        0.1035
      3 C         138.0697  141.0606  161.0833 C.3     1  UNL1        0.1470
      4 C         137.8981  139.8418  161.9408 C.3     1  UNL1        0.1035
      5 N         139.0988  139.0529  162.3717 N.3     1  UNL1       -0.2684
      6 C         140.4713  139.4827  161.9453 C.3     1  UNL1        0.1035
      7 C         140.6428  140.7015  161.0879 C.3     1  UNL1        0.1470
      8 C         140.8144  141.9202  160.2305 C.3     1  UNL1        0.1035
      9 O         139.2705  140.2717  161.5143 O.3     1  UNL1       -0.3530
     10 C         139.7853  143.9280  158.9421 C.3     1  UNL1        0.0913
     11 C         140.3977  145.1701  159.5183 C.3     1  UNL1        0.1087
     12 N         139.7720  145.8313  160.7106 N.3     1  UNL1       -0.1780
     13 H         140.1825  146.7624  160.7801 H       1  UNL1        0.1488
     14 S         139.8936  145.2021  162.0668 S.O2    1  UNL1        0.0603
     15 O         141.3804  145.1105  161.8911 O.2     1  UNL1       -0.1530
     16 O         138.4067  145.2937  162.2425 O.2     1  UNL1       -0.1530
     17 C         140.2582  143.3146  166.1355 C.ar    1  UNL1        0.0685
     18 C         139.0839  144.1924  165.8184 C.ar    1  UNL1        0.0116
     19 C         138.9623  144.8216  164.4622 C.ar    1  UNL1        0.0206
     20 C         140.0151  144.5730  163.4230 C.ar    1  UNL1        0.1220
     21 C         141.1894  143.6951  163.7401 C.ar    1  UNL1        0.0206
     22 C         141.3109  143.0660  165.0963 C.ar    1  UNL1        0.0116
     23 N         140.5012  142.0563  168.8480 N.1     1  UNL1       -0.1908
     24 C         140.3797  142.6855  167.4917 C.1     1  UNL1        0.1004
     25 C         138.9272  137.8341  163.2291 C.3     1  UNL1        0.0761
     26 C         139.7270  137.6850  164.4894 C.3     1  UNL1        0.0646
     27 C         141.1075  137.1006  164.4369 C.3     1  UNL1        0.2068
     28 O         142.2365  137.7781  165.1553 O.3     1  UNL1       -0.4753
     29 C         143.0660  138.8077  164.4467 C.ar    1  UNL1        0.1408
     30 C         143.5205  138.5647  163.0381 C.ar    1  UNL1        0.0370
     31 C         144.3500  139.5943  162.3296 C.ar    1  UNL1        0.0054
     32 C         144.7249  140.8668  163.0297 C.ar    1  UNL1        0.0298
     33 C         144.2704  141.1097  164.4384 C.ar    1  UNL1        0.1432
     34 F         144.6453  142.3822  165.1385 F       1  UNL1       -0.2041
     35 C         143.4409  140.0802  165.1469 C.ar    1  UNL1        0.0665
@<TRIPOS>BOND
     1    23    24    3
     2    24    17    1
     3    17    18   ar
     4    18    19   ar
     5    19    20   ar
     6    20    14    1
     7    14    15    2
     8    14    16    2
     9    14    12    1
    10    12    11    1
    11    11    10    1
    12    10     1    1
    13     1     2    1
    14     2     3    1
    15     3     4    1
    16     4     5    1
    17     5    25    1
    18    25    26    1
    19    26    27    1
    20    27    28    1
    21    28    29    1
    22    29    30   ar
    23    30    31   ar
    24    31    32   ar
    25    32    33   ar
    26    33    34    1
    27    33    35   ar
    28     5     6    1
    29     6     7    1
    30     7     8    1
    31     7     9    1
    32    20    21   ar
    33    21    22   ar
    34    22    17   ar
    35     8     1    1
    36     9     3    1
    37    35    29   ar
    38    12    13    1
@<TRIPOS>MOLECULE
*****
 35 38 0 0 0
SMALL
GASTEIGER

@<TRIPOS>ATOM
      1 N         140.1868  142.6931  159.1633 N.3     1  UNL1       -0.2673
      2 C         141.0449  141.4637  159.2094 C.3     1  UNL1        0.1035
      3 C         140.5975  140.2659  159.9936 C.3     1  UNL1        0.1470
      4 C         140.1502  139.0680  160.7779 C.3     1  UNL1        0.1035
      5 N         138.8447  139.0996  161.5160 N.3     1  UNL1       -0.2684
      6 C         137.9867  140.3291  161.4699 C.3     1  UNL1        0.1035
      7 C         138.4340  141.5269  160.6857 C.3     1  UNL1        0.1470
      8 C         138.8814  142.7247  159.9014 C.3     1  UNL1        0.1035
      9 O         139.2921  140.2975  160.7318 O.3     1  UNL1       -0.3530
     10 C         140.6341  143.8910  158.3790 C.3     1  UNL1        0.0913
     11 C         140.6304  145.2488  159.0163 C.3     1  UNL1        0.1087
     12 N         141.6007  145.5638  160.1161 N.3     1  UNL1       -0.1780
     13 H         142.5161  145.2413  159.8025 H       1  UNL1        0.1488
     14 S         141.3886  144.9967  161.4885 S.O2    1  UNL1        0.0603
     15 O         140.0840  145.7299  161.5899 O.2     1  UNL1       -0.1530
     16 O         142.6933  144.2636  161.3872 O.2     1  UNL1       -0.1530
     17 C         140.7526  143.2955  165.6057 C.ar    1  UNL1        0.0685
     18 C         139.6536  144.0640  164.9338 C.ar    1  UNL1        0.0116
     19 C         139.8656  144.6311  163.5613 C.ar    1  UNL1        0.0206
     20 C         141.1766  144.4297  162.8609 C.ar    1  UNL1        0.1220
     21 C         142.2756  143.6611  163.5329 C.ar    1  UNL1        0.0206
     22 C         142.0636  143.0941  164.9053 C.ar    1  UNL1        0.0116
     23 N         140.3285  142.1615  168.3505 N.1     1  UNL1       -0.1908
     24 C         140.5405  142.7285  166.9781 C.1     1  UNL1        0.1004
     25 C         138.3974  137.9018  162.3003 C.3     1  UNL1        0.0761
     26 C         138.8165  137.7433  163.7318 C.3     1  UNL1        0.0646
     27 C         138.6725  138.8909  164.6869 C.3     1  UNL1        0.2068
     28 O         139.7318  139.9509  164.7509 O.3     1  UNL1       -0.4753
     29 C         141.1628  139.5679  164.9868 C.ar    1  UNL1        0.1408
     30 C         141.6426  139.2803  166.3786 C.ar    1  UNL1        0.0370
     31 C         143.0735  138.8973  166.6145 C.ar    1  UNL1        0.0054
     32 C         144.0247  138.8019  165.4586 C.ar    1  UNL1        0.0298
     33 C         143.5450  139.0895  164.0668 C.ar    1  UNL1        0.1432
     34 F         144.4962  138.9942  162.9109 F       1  UNL1       -0.2041
     35 C         142.1140  139.4725  163.8309 C.ar    1  UNL1        0.0665
@<TRIPOS>BOND
     1    23    24    3
     2    24    17    1
     3    17    18   ar
     4    18    19   ar
     5    19    20   ar
     6    20    14    1
     7    14    15    2
     8    14    16    2
     9    14    12    1
    10    12    11    1
    11    11    10    1
    12    10     1    1
    13     1     2    1
    14     2     3    1
    15     3     4    1
    16     4     5    1
    17     5    25    1
    18    25    26    1
    19    26    27    1
    20    27    28    1
    21    28    29    1
    22    29    30   ar
    23    30    31   ar
    24    31    32   ar
    25    32    33   ar
    26    33    34    1
    27    33    35   ar
    28     5     6    1
    29     6     7    1
    30     7     8    1
    31     7     9    1
    32    20    21   ar
    33    21    22   ar
    34    22    17   ar
    35     8     1    1
    36     9     3    1
    37    35    29   ar
    38    12    13    1
@<TRIPOS>MOLECULE
*****
 35 38 0 0 0
SMALL
GASTEIGER

@<TRIPOS>ATOM
      1 N         141.9779  139.1387  159.7489 N.3     1  UNL1       -0.2673
      2 C         142.4185  138.3882  160.9706 C.3     1  UNL1        0.1035
      3 C         143.3012  139.0557  161.9831 C.3     1  UNL1        0.1470
      4 C         144.1839  139.7231  162.9957 C.3     1  UNL1        0.1035
      5 N         144.6261  141.1411  162.7865 N.3     1  UNL1       -0.2684
      6 C         144.1855  141.8917  161.5647 C.3     1  UNL1        0.1035
      7 C         143.3028  141.2242  160.5522 C.3     1  UNL1        0.1470
      8 C         142.4201  140.5567  159.5397 C.3     1  UNL1        0.1035
      9 O         143.7433  140.4737  161.7739 O.3     1  UNL1       -0.3530
     10 C         141.0951  138.4712  158.7363 C.3     1  UNL1        0.0913
     11 C         139.6245  138.3344  158.9976 C.3     1  UNL1        0.1087
     12 N         138.8840  139.4282  159.7085 N.3     1  UNL1       -0.1780
     13 H         139.3335  140.3058  159.4477 H       1  UNL1        0.1488
     14 S         138.7881  139.4189  161.2054 S.O2    1  UNL1        0.0603
     15 O         139.0693  140.8921  161.2325 O.2     1  UNL1       -0.1530
     16 O         138.5069  137.9458  161.1783 O.2     1  UNL1       -0.1530
     17 C         138.5005  139.3912  165.6961 C.ar    1  UNL1        0.0685
     18 C         138.7975  138.1209  164.9558 C.ar    1  UNL1        0.0116
     19 C         138.8933  138.1302  163.4588 C.ar    1  UNL1        0.0206
     20 C         138.6922  139.4097  162.7023 C.ar    1  UNL1        0.1220
     21 C         138.3953  140.6800  163.4427 C.ar    1  UNL1        0.0206
     22 C         138.2994  140.6708  164.9395 C.ar    1  UNL1        0.0116
     23 N         138.3087  139.3728  168.6899 N.1     1  UNL1       -0.1908
     24 C         138.4046  139.3820  167.1930 C.1     1  UNL1        0.1004
     25 C         145.5088  141.8086  163.7990 C.3     1  UNL1        0.0761
     26 C         144.9222  142.7767  164.7834 C.3     1  UNL1        0.0646
     27 C         143.6599  143.5145  164.4485 C.3     1  UNL1        0.2068
     28 O         142.3352  142.9809  164.9072 O.3     1  UNL1       -0.4753
     29 C         141.0652  143.5184  164.3171 C.ar    1  UNL1        0.1408
     30 C         140.9314  143.6631  162.8302 C.ar    1  UNL1        0.0370
     31 C         139.6614  144.2006  162.2402 C.ar    1  UNL1        0.0054
     32 C         138.5251  144.5935  163.1372 C.ar    1  UNL1        0.0298
     33 C         138.6589  144.4488  164.6242 C.ar    1  UNL1        0.1432
     34 F         137.5227  144.8417  165.5212 F       1  UNL1       -0.2041
     35 C         139.9290  143.9113  165.2141 C.ar    1  UNL1        0.0665
@<TRIPOS>BOND
     1    23    24    3
     2    24    17    1
     3    17    18   ar
     4    18    19   ar
     5    19    20   ar
     6    20    14    1
     7    14    15    2
     8    14    16    2
     9    14    12    1
    10    12    11    1
    11    11    10    1
    12    10     1    1
    13     1     2    1
    14     2     3    1
    15     3     4    1
    16     4     5    1
    17     5    25    1
    18    25    26    1
    19    26    27    1
    20    27    28    1
    21    28    29    1
    22    29    30   ar
    23    30    31   ar
    24    31    32   ar
    25    32    33   ar
    26    33    34    1
    27    33    35   ar
    28     5     6    1
    29     6     7    1
    30     7     8    1
    31     7     9    1
    32    20    21   ar
    33    21    22   ar
    34    22    17   ar
    35     8     1    1
    36     9     3    1
    37    35    29   ar
    38    12    13    1
