@<TRIPOS>MOLECULE
*****
 37 40 0 0 0
SMALL
GASTEIGER

@<TRIPOS>ATOM
      1 C         139.2124  143.4161  159.9628 C.ar    1  UNL1        0.0690
      2 C         138.2117  142.3774  159.5508 C.ar    1  UNL1        0.0275
      3 C         138.2543  142.2600  158.0560 C.ar    1  UNL1        0.1140
      4 N         139.2813  143.2262  157.5442 N.ar    1  UNL1       -0.3223
      5 C         139.8734  143.9407  158.7227 C.ar    1  UNL1        0.0717
      6 C         140.9379  144.9767  158.5143 C.3     1  UNL1        0.1857
      7 O         141.4104  145.2981  157.1274 O.3     1  UNL1       -0.3454
      8 C         140.8183  144.5836  155.9489 C.3     1  UNL1        0.1671
      9 C         139.7537  143.5476  156.1573 C.3     1  UNL1        0.1379
     10 N         139.8612  142.8371  162.4111 N.am    1  UNL1       -0.2987
     11 C         139.5013  143.8536  161.3682 C.2     1  UNL1        0.2472
     12 O         139.4304  145.3072  161.7309 O.2     1  UNL1       -0.2701
     13 H         139.9078  141.8829  162.1731 H       1  UNL1        0.1500
     14 C         140.1501  143.2745  163.8165 C.3     1  UNL1        0.0943
     15 C         141.5682  143.4713  164.2642 C.ar    1  UNL1       -0.0045
     16 C         142.1720  142.5404  165.2736 C.ar    1  UNL1       -0.0027
     17 C         143.5900  142.7372  165.7213 C.ar    1  UNL1       -0.0003
     18 C         144.4042  143.8648  165.1596 C.ar    1  UNL1       -0.0000
     19 C         143.8004  144.7957  164.1503 C.ar    1  UNL1       -0.0003
     20 C         142.3823  144.5989  163.7026 C.ar    1  UNL1       -0.0027
     21 C         138.8287  144.8734  165.3807 C.3     1  UNL1        0.0021
     22 C         139.0210  143.5151  164.7741 C.3     1  UNL1        0.0241
     23 C         137.4170  141.3383  157.2198 C.2     1  UNL1        0.2619
     24 O         137.7479  139.8768  157.1539 O.2     1  UNL1       -0.2686
     25 N         136.2486  141.8781  156.4493 N.am    1  UNL1       -0.2975
     26 H         136.0313  142.8374  156.4925 H       1  UNL1        0.1500
     27 C         135.4112  140.9564  155.6131 C.3     1  UNL1        0.0959
     28 C         134.0170  140.6106  156.0450 C.ar    1  UNL1        0.0149
     29 C         133.7957  139.5682  157.1007 C.ar    1  UNL1        0.0036
     30 C         132.4015  139.2224  157.5326 C.ar    1  UNL1        0.0574
     31 C         131.2285  139.9190  156.9088 C.ar    1  UNL1        0.2250
     32 N         131.4499  140.9614  155.8531 N.ar    1  UNL1       -0.2104
     33 C         132.8441  141.3072  155.4212 C.ar    1  UNL1        0.0993
     34 O         129.8343  139.5732  157.3407 O.3     1  UNL1       -0.4561
     35 C         129.6150  138.7235  158.5572 C.3     1  UNL1        0.2542
     36 C         135.9682  140.3805  154.3450 C.3     1  UNL1        0.0242
     37 C         136.0979  138.8942  154.1899 C.3     1  UNL1        0.0021
@<TRIPOS>BOND
     1    21    22    1
     2    14    22    1
     3    14    10    1
     4    10    11   am
     5    11    12    2
     6    11     1    1
     7     1     2   ar
     8     2     3   ar
     9     3    23    1
    10    23    24    2
    11    23    25   am
    12    25    27    1
    13    27    36    1
    14    36    37    1
    15    27    28    1
    16    28    29   ar
    17    29    30   ar
    18    30    31   ar
    19    31    34    1
    20    34    35    1
    21    31    32   ar
    22    32    33   ar
    23     3     4   ar
    24     4     5   ar
    25     5     6    1
    26     6     7    1
    27     7     8    1
    28     8     9    1
    29    14    15    1
    30    15    16   ar
    31    16    17   ar
    32    17    18   ar
    33    18    19   ar
    34    19    20   ar
    35     5     1   ar
    36    20    15   ar
    37    33    28   ar
    38     9     4    1
    39    10    13    1
    40    25    26    1
@<TRIPOS>MOLECULE
*****
 37 40 0 0 0
SMALL
GASTEIGER

@<TRIPOS>ATOM
      1 C         140.2638  139.4635  160.4103 C.ar    1  UNL1        0.0690
      2 C         141.2824  138.5192  159.8441 C.ar    1  UNL1        0.0275
      3 C         141.0543  138.4240  158.3646 C.ar    1  UNL1        0.1140
      4 N         139.8947  139.3094  158.0165 N.ar    1  UNL1       -0.3223
      5 C         139.4061  139.9519  159.2808 C.ar    1  UNL1        0.0717
      6 C         138.2434  140.8986  159.2402 C.3     1  UNL1        0.1857
      7 O         137.5693  141.2029  157.9352 O.3     1  UNL1       -0.3454
      8 C         138.0579  140.5605  156.6709 C.3     1  UNL1        0.1671
      9 C         139.2206  139.6137  156.7115 C.3     1  UNL1        0.1379
     10 N         138.7792  139.8268  162.5114 N.am    1  UNL1       -0.2987
     11 C         140.1268  139.8513  161.8528 C.2     1  UNL1        0.2472
     12 O         141.3372  140.2636  162.6368 O.2     1  UNL1       -0.2701
     13 H         137.9847  139.5562  161.9968 H       1  UNL1        0.1500
     14 C         138.6422  140.2147  163.9539 C.3     1  UNL1        0.0943
     15 C         138.6775  141.6615  164.3481 C.ar    1  UNL1       -0.0045
     16 C         139.6799  142.1399  165.3563 C.ar    1  UNL1       -0.0027
     17 C         139.7153  143.5867  165.7505 C.ar    1  UNL1       -0.0003
     18 C         138.7481  144.5551  165.1367 C.ar    1  UNL1       -0.0000
     19 C         137.7457  144.0767  164.1285 C.ar    1  UNL1       -0.0003
     20 C         137.7104  142.6299  163.7343 C.ar    1  UNL1       -0.0027
     21 C         139.0055  137.7742  164.7675 C.3     1  UNL1        0.0021
     22 C         138.4699  139.1556  165.0020 C.3     1  UNL1        0.0241
     23 C         141.8467  137.5898  157.4022 C.2     1  UNL1        0.2619
     24 O         143.3285  137.7882  157.2813 O.2     1  UNL1       -0.2686
     25 N         141.1572  136.5570  156.5607 N.am    1  UNL1       -0.2975
     26 H         140.1846  136.4267  156.6401 H       1  UNL1        0.1500
     27 C         141.9496  135.7228  155.5983 C.3     1  UNL1        0.0959
     28 C         142.3757  134.3366  155.9817 C.ar    1  UNL1        0.0149
     29 C         141.6037  133.1504  155.4849 C.ar    1  UNL1        0.0036
     30 C         142.0297  131.7642  155.8682 C.ar    1  UNL1        0.0574
     31 C         143.2278  131.5643  156.7484 C.ar    1  UNL1        0.2250
     32 N         143.9998  132.7505  157.2453 N.ar    1  UNL1       -0.2104
     33 C         143.5737  134.1367  156.8619 C.ar    1  UNL1        0.0993
     34 O         143.6538  130.1781  157.1318 O.3     1  UNL1       -0.4561
     35 C         144.5141  129.9656  158.3420 C.3     1  UNL1        0.2542
     36 C         142.3159  136.2748  154.2526 C.3     1  UNL1        0.0242
     37 C         141.7558  135.6514  153.0085 C.3     1  UNL1        0.0021
@<TRIPOS>BOND
     1    21    22    1
     2    14    22    1
     3    14    10    1
     4    10    11   am
     5    11    12    2
     6    11     1    1
     7     1     2   ar
     8     2     3   ar
     9     3    23    1
    10    23    24    2
    11    23    25   am
    12    25    27    1
    13    27    36    1
    14    36    37    1
    15    27    28    1
    16    28    29   ar
    17    29    30   ar
    18    30    31   ar
    19    31    34    1
    20    34    35    1
    21    31    32   ar
    22    32    33   ar
    23     3     4   ar
    24     4     5   ar
    25     5     6    1
    26     6     7    1
    27     7     8    1
    28     8     9    1
    29    14    15    1
    30    15    16   ar
    31    16    17   ar
    32    17    18   ar
    33    18    19   ar
    34    19    20   ar
    35     5     1   ar
    36    20    15   ar
    37    33    28   ar
    38     9     4    1
    39    10    13    1
    40    25    26    1
@<TRIPOS>MOLECULE
*****
 37 40 0 0 0
SMALL
GASTEIGER

@<TRIPOS>ATOM
      1 C         139.1790  142.8628  159.6533 C.ar    1  UNL1        0.0690
      2 C         138.1927  141.8629  159.1263 C.ar    1  UNL1        0.0275
      3 C         137.9652  142.1579  157.6733 C.ar    1  UNL1        0.1140
      4 N         138.8107  143.3400  157.3023 N.ar    1  UNL1       -0.3223
      5 C         139.5609  143.7756  158.5259 C.ar    1  UNL1        0.0717
      6 C         140.4949  144.9473  158.4556 C.3     1  UNL1        0.1857
      7 O         140.6786  145.6832  157.1616 O.3     1  UNL1       -0.3454
      8 C         139.9284  145.2475  155.9379 C.3     1  UNL1        0.1671
      9 C         138.9945  144.0759  156.0082 C.3     1  UNL1        0.1379
     10 N         138.8071  143.4505  162.1566 N.am    1  UNL1       -0.2987
     11 C         139.6930  142.9368  161.0605 C.2     1  UNL1        0.2472
     12 O         141.0929  142.4973  161.3717 O.2     1  UNL1       -0.2701
     13 H         137.8882  143.7390  161.9524 H       1  UNL1        0.1500
     14 C         139.3211  143.5245  163.5638 C.3     1  UNL1        0.0943
     15 C         139.2057  142.3334  164.4681 C.ar    1  UNL1       -0.0045
     16 C         139.9710  142.2937  165.7576 C.ar    1  UNL1       -0.0027
     17 C         139.8556  141.1025  166.6619 C.ar    1  UNL1       -0.0003
     18 C         138.9748  139.9510  166.2767 C.ar    1  UNL1       -0.0000
     19 C         138.2095  139.9907  164.9872 C.ar    1  UNL1       -0.0003
     20 C         138.3250  141.1819  164.0829 C.ar    1  UNL1       -0.0027
     21 C         141.3864  145.0894  163.7524 C.3     1  UNL1        0.0021
     22 C         139.9506  144.7898  164.0666 C.3     1  UNL1        0.0241
     23 C         137.0523  141.4032  156.7529 C.2     1  UNL1        0.2619
     24 O         137.3071  139.9530  156.4670 O.2     1  UNL1       -0.2686
     25 N         135.8845  142.0988  156.1185 N.am    1  UNL1       -0.2975
     26 H         135.7172  143.0507  156.3061 H       1  UNL1        0.1500
     27 C         134.9716  141.3441  155.1981 C.3     1  UNL1        0.0959
     28 C         133.6906  140.7651  155.7211 C.ar    1  UNL1        0.0149
     29 C         133.7112  139.4899  156.5107 C.ar    1  UNL1        0.0036
     30 C         132.4301  138.9109  157.0338 C.ar    1  UNL1        0.0574
     31 C         131.1285  139.6070  156.7672 C.ar    1  UNL1        0.2250
     32 N         131.1078  140.8822  155.9776 N.ar    1  UNL1       -0.2104
     33 C         132.3889  141.4612  155.4546 C.ar    1  UNL1        0.0993
     34 O         129.8474  139.0280  157.2903 O.3     1  UNL1       -0.4561
     35 C         129.4811  137.6085  156.9727 C.3     1  UNL1        0.2542
     36 C         135.3399  141.1686  153.7546 C.3     1  UNL1        0.0242
     37 C         135.8177  139.8357  153.2594 C.3     1  UNL1        0.0021
@<TRIPOS>BOND
     1    21    22    1
     2    14    22    1
     3    14    10    1
     4    10    11   am
     5    11    12    2
     6    11     1    1
     7     1     2   ar
     8     2     3   ar
     9     3    23    1
    10    23    24    2
    11    23    25   am
    12    25    27    1
    13    27    36    1
    14    36    37    1
    15    27    28    1
    16    28    29   ar
    17    29    30   ar
    18    30    31   ar
    19    31    34    1
    20    34    35    1
    21    31    32   ar
    22    32    33   ar
    23     3     4   ar
    24     4     5   ar
    25     5     6    1
    26     6     7    1
    27     7     8    1
    28     8     9    1
    29    14    15    1
    30    15    16   ar
    31    16    17   ar
    32    17    18   ar
    33    18    19   ar
    34    19    20   ar
    35     5     1   ar
    36    20    15   ar
    37    33    28   ar
    38     9     4    1
    39    10    13    1
    40    25    26    1
@<TRIPOS>MOLECULE
*****
 37 40 0 0 0
SMALL
GASTEIGER

@<TRIPOS>ATOM
      1 C         137.7927  142.1111  157.4664 C.ar    1  UNL1        0.0690
      2 C         137.9718  141.8701  158.9360 C.ar    1  UNL1        0.0275
      3 C         138.9742  142.8608  159.4494 C.ar    1  UNL1        0.1140
      4 N         139.4147  143.7141  158.2970 N.ar    1  UNL1       -0.3223
      5 C         138.6845  143.2507  157.0715 C.ar    1  UNL1        0.0717
      6 C         138.9259  143.9264  155.7542 C.3     1  UNL1        0.1857
      7 O         139.8975  145.0655  155.6626 O.3     1  UNL1       -0.3454
      8 C         140.6278  145.5288  156.8882 C.3     1  UNL1        0.1671
      9 C         140.3863  144.8532  158.2054 C.3     1  UNL1        0.1379
     10 N         135.6732  142.0151  155.9667 N.am    1  UNL1       -0.2987
     11 C         136.8818  141.3466  156.5521 C.2     1  UNL1        0.2472
     12 O         137.1794  139.9138  156.2232 O.2     1  UNL1       -0.2701
     13 H         135.4779  142.9556  156.1826 H       1  UNL1        0.1500
     14 C         134.7623  141.2507  155.0525 C.3     1  UNL1        0.0943
     15 C         133.5423  140.5739  155.6034 C.ar    1  UNL1       -0.0045
     16 C         133.6490  139.1984  156.1920 C.ar    1  UNL1       -0.0027
     17 C         132.4289  138.5216  156.7429 C.ar    1  UNL1       -0.0003
     18 C         131.1022  139.2204  156.7052 C.ar    1  UNL1       -0.0000
     19 C         130.9955  140.5960  156.1165 C.ar    1  UNL1       -0.0003
     20 C         132.2156  141.2727  155.5656 C.ar    1  UNL1       -0.0027
     21 C         135.7820  139.9599  153.0415 C.3     1  UNL1        0.0021
     22 C         135.0716  141.1630  153.5874 C.3     1  UNL1        0.0241
     23 C         139.4523  142.9778  160.8664 C.2     1  UNL1        0.2619
     24 O         140.0917  141.8010  161.5418 O.2     1  UNL1       -0.2686
     25 N         139.2910  144.2717  161.6080 N.am    1  UNL1       -0.2975
     26 H         138.8713  145.0441  161.1647 H       1  UNL1        0.1500
     27 C         139.7690  144.3886  163.0249 C.3     1  UNL1        0.0959
     28 C         141.1641  143.9694  163.3828 C.ar    1  UNL1        0.0149
     29 C         142.3292  144.4901  162.5945 C.ar    1  UNL1        0.0036
     30 C         143.7242  144.0709  162.9524 C.ar    1  UNL1        0.0574
     31 C         143.9542  143.1310  164.0986 C.ar    1  UNL1        0.2250
     32 N         142.7891  142.6103  164.8869 N.ar    1  UNL1       -0.2104
     33 C         141.3941  143.0296  164.5290 C.ar    1  UNL1        0.0993
     34 O         145.3492  142.7118  164.4565 O.3     1  UNL1       -0.4561
     35 C         145.9813  141.5407  163.7645 C.3     1  UNL1        0.2542
     36 C         138.8520  144.9248  164.0839 C.3     1  UNL1        0.0242
     37 C         137.7812  144.0482  164.6627 C.3     1  UNL1        0.0021
@<TRIPOS>BOND
     1    21    22    1
     2    14    22    1
     3    14    10    1
     4    10    11   am
     5    11    12    2
     6    11     1    1
     7     1     2   ar
     8     2     3   ar
     9     3    23    1
    10    23    24    2
    11    23    25   am
    12    25    27    1
    13    27    36    1
    14    36    37    1
    15    27    28    1
    16    28    29   ar
    17    29    30   ar
    18    30    31   ar
    19    31    34    1
    20    34    35    1
    21    31    32   ar
    22    32    33   ar
    23     3     4   ar
    24     4     5   ar
    25     5     6    1
    26     6     7    1
    27     7     8    1
    28     8     9    1
    29    14    15    1
    30    15    16   ar
    31    16    17   ar
    32    17    18   ar
    33    18    19   ar
    34    19    20   ar
    35     5     1   ar
    36    20    15   ar
    37    33    28   ar
    38     9     4    1
    39    10    13    1
    40    25    26    1
@<TRIPOS>MOLECULE
*****
 37 40 0 0 0
SMALL
GASTEIGER

@<TRIPOS>ATOM
      1 C         139.3886  142.4711  160.5152 C.ar    1  UNL1        0.0690
      2 C         138.3383  141.8465  159.6453 C.ar    1  UNL1        0.0275
      3 C         138.3617  142.5437  158.3173 C.ar    1  UNL1        0.1140
      4 N         139.4264  143.5991  158.3665 N.ar    1  UNL1       -0.3223
      5 C         140.0611  143.5543  159.7249 C.ar    1  UNL1        0.0717
      6 C         141.1694  144.5055  160.0666 C.3     1  UNL1        0.1857
      7 O         141.6430  145.5015  159.0500 O.3     1  UNL1       -0.3454
      8 C         141.0083  145.5463  157.6916 C.3     1  UNL1        0.1671
      9 C         139.9000  144.5951  157.3499 C.3     1  UNL1        0.1379
     10 N         138.6225  142.0384  162.9598 N.am    1  UNL1       -0.2987
     11 C         139.7100  142.0811  161.9275 C.2     1  UNL1        0.2472
     12 O         141.1188  141.7338  162.3076 O.2     1  UNL1       -0.2701
     13 H         137.6978  142.2664  162.7104 H       1  UNL1        0.1500
     14 C         138.9439  141.6484  164.3721 C.3     1  UNL1        0.0943
     15 C         138.7909  140.2218  164.8095 C.ar    1  UNL1       -0.0045
     16 C         139.3024  139.1117  163.9399 C.ar    1  UNL1       -0.0027
     17 C         139.1494  137.6851  164.3773 C.ar    1  UNL1       -0.0003
     18 C         138.4850  137.3685  165.6844 C.ar    1  UNL1       -0.0000
     19 C         137.9736  138.4786  166.5540 C.ar    1  UNL1       -0.0003
     20 C         138.1265  139.9052  166.1166 C.ar    1  UNL1       -0.0027
     21 C         139.6988  144.0822  164.8786 C.3     1  UNL1        0.0021
     22 C         139.4182  142.6850  165.3469 C.3     1  UNL1        0.0241
     23 C         137.4758  142.2389  157.1458 C.2     1  UNL1        0.2619
     24 O         137.0252  143.3449  156.2385 O.2     1  UNL1       -0.2686
     25 N         137.0406  140.8278  156.8817 N.am    1  UNL1       -0.2975
     26 H         137.3364  140.1018  157.4772 H       1  UNL1        0.1500
     27 C         136.1548  140.5230  155.7102 C.3     1  UNL1        0.0959
     28 C         134.6637  140.5805  155.8625 C.ar    1  UNL1        0.0149
     29 C         133.8335  141.3071  154.8462 C.ar    1  UNL1        0.0036
     30 C         132.3423  141.3646  154.9984 C.ar    1  UNL1        0.0574
     31 C         131.6814  140.6955  156.1670 C.ar    1  UNL1        0.2250
     32 N         132.5116  139.9690  157.1833 N.ar    1  UNL1       -0.2104
     33 C         134.0027  139.9115  157.0310 C.ar    1  UNL1        0.0993
     34 O         130.1903  140.7531  156.3192 O.3     1  UNL1       -0.4561
     35 C         129.4867  139.7578  157.1935 C.3     1  UNL1        0.2542
     36 C         136.7602  140.1608  154.3865 C.3     1  UNL1        0.0242
     37 C         137.2516  141.2387  153.4664 C.3     1  UNL1        0.0021
@<TRIPOS>BOND
     1    21    22    1
     2    14    22    1
     3    14    10    1
     4    10    11   am
     5    11    12    2
     6    11     1    1
     7     1     2   ar
     8     2     3   ar
     9     3    23    1
    10    23    24    2
    11    23    25   am
    12    25    27    1
    13    27    36    1
    14    36    37    1
    15    27    28    1
    16    28    29   ar
    17    29    30   ar
    18    30    31   ar
    19    31    34    1
    20    34    35    1
    21    31    32   ar
    22    32    33   ar
    23     3     4   ar
    24     4     5   ar
    25     5     6    1
    26     6     7    1
    27     7     8    1
    28     8     9    1
    29    14    15    1
    30    15    16   ar
    31    16    17   ar
    32    17    18   ar
    33    18    19   ar
    34    19    20   ar
    35     5     1   ar
    36    20    15   ar
    37    33    28   ar
    38     9     4    1
    39    10    13    1
    40    25    26    1
@<TRIPOS>MOLECULE
*****
 37 40 0 0 0
SMALL
GASTEIGER

@<TRIPOS>ATOM
      1 C         142.8573  139.4101  160.1936 C.ar    1  UNL1        0.0690
      2 C         142.5945  138.1469  159.4286 C.ar    1  UNL1        0.0275
      3 C         143.0121  138.3716  158.0055 C.ar    1  UNL1        0.1140
      4 N         143.5330  139.7736  157.8911 N.ar    1  UNL1       -0.3223
      5 C         143.4374  140.4154  159.2434 C.ar    1  UNL1        0.0717
      6 C         143.8908  141.8323  159.4349 C.3     1  UNL1        0.1857
      7 O         144.4399  142.6074  158.2740 O.3     1  UNL1       -0.3454
      8 C         144.5356  141.9655  156.9216 C.3     1  UNL1        0.1671
      9 C         144.0821  140.5486  156.7302 C.3     1  UNL1        0.1379
     10 N         142.9128  138.5532  162.6458 N.am    1  UNL1       -0.2987
     11 C         142.5875  139.6295  161.6528 C.2     1  UNL1        0.2472
     12 O         141.9924  140.9250  162.1190 O.2     1  UNL1       -0.2701
     13 H         143.3034  137.7029  162.3398 H       1  UNL1        0.1500
     14 C         142.6430  138.7726  164.1049 C.3     1  UNL1        0.0943
     15 C         141.2495  138.6260  164.6403 C.ar    1  UNL1       -0.0045
     16 C         140.8060  139.4497  165.8128 C.ar    1  UNL1       -0.0027
     17 C         139.4125  139.3031  166.3482 C.ar    1  UNL1       -0.0003
     18 C         138.4624  138.3329  165.7110 C.ar    1  UNL1       -0.0000
     19 C         138.9059  137.5092  164.5385 C.ar    1  UNL1       -0.0003
     20 C         140.2994  137.6558  164.0031 C.ar    1  UNL1       -0.0027
     21 C         145.1069  139.5120  164.4680 C.3     1  UNL1        0.0021
     22 C         143.7667  139.1386  165.0286 C.3     1  UNL1        0.0241
     23 C         142.9242  137.3701  156.8923 C.2     1  UNL1        0.2619
     24 O         144.0924  137.1647  155.9742 O.2     1  UNL1       -0.2686
     25 N         141.6679  136.5739  156.6972 N.am    1  UNL1       -0.2975
     26 H         140.9011  136.7086  157.2997 H       1  UNL1        0.1500
     27 C         141.5800  135.5724  155.5839 C.3     1  UNL1        0.0959
     28 C         141.9427  134.1386  155.8345 C.ar    1  UNL1        0.0149
     29 C         141.2736  133.0479  155.0519 C.ar    1  UNL1        0.0036
     30 C         141.6363  131.6142  155.3025 C.ar    1  UNL1        0.0574
     31 C         142.6682  131.2712  156.3358 C.ar    1  UNL1        0.2250
     32 N         143.3373  132.3619  157.1184 N.ar    1  UNL1       -0.2104
     33 C         142.9746  133.7956  156.8678 C.ar    1  UNL1        0.0993
     34 O         143.0309  129.8374  156.5864 O.3     1  UNL1       -0.4561
     35 C         143.1582  128.8838  155.4357 C.3     1  UNL1        0.2542
     36 C         141.1294  136.0047  154.2201 C.3     1  UNL1        0.0242
     37 C         139.8265  136.7295  154.0556 C.3     1  UNL1        0.0021
@<TRIPOS>BOND
     1    21    22    1
     2    14    22    1
     3    14    10    1
     4    10    11   am
     5    11    12    2
     6    11     1    1
     7     1     2   ar
     8     2     3   ar
     9     3    23    1
    10    23    24    2
    11    23    25   am
    12    25    27    1
    13    27    36    1
    14    36    37    1
    15    27    28    1
    16    28    29   ar
    17    29    30   ar
    18    30    31   ar
    19    31    34    1
    20    34    35    1
    21    31    32   ar
    22    32    33   ar
    23     3     4   ar
    24     4     5   ar
    25     5     6    1
    26     6     7    1
    27     7     8    1
    28     8     9    1
    29    14    15    1
    30    15    16   ar
    31    16    17   ar
    32    17    18   ar
    33    18    19   ar
    34    19    20   ar
    35     5     1   ar
    36    20    15   ar
    37    33    28   ar
    38     9     4    1
    39    10    13    1
    40    25    26    1
@<TRIPOS>MOLECULE
*****
 37 40 0 0 0
SMALL
GASTEIGER

@<TRIPOS>ATOM
      1 C         140.3434  138.7783  158.8351 C.ar    1  UNL1        0.0690
      2 C         139.2734  139.3884  159.6911 C.ar    1  UNL1        0.0275
      3 C         139.8179  139.5324  161.0813 C.ar    1  UNL1        0.1140
      4 N         141.2245  139.0113  161.0845 N.ar    1  UNL1       -0.3223
      5 C         141.5493  138.5452  159.6963 C.ar    1  UNL1        0.0717
      6 C         142.9010  137.9688  159.3957 C.3     1  UNL1        0.1857
      7 O         143.9280  137.8585  160.4833 O.3     1  UNL1       -0.3454
      8 C         143.6033  138.3246  161.8716 C.3     1  UNL1        0.1671
      9 C         142.2515  138.9010  162.1722 C.3     1  UNL1        0.1379
     10 N         139.4008  137.2890  156.9262 N.am    1  UNL1       -0.2987
     11 C         140.2279  138.4575  157.3744 C.2     1  UNL1        0.2472
     12 O         140.9393  139.3050  156.3618 O.2     1  UNL1       -0.2701
     13 H         138.9338  136.7327  157.5908 H       1  UNL1        0.1500
     14 C         139.2853  136.9682  155.4655 C.3     1  UNL1        0.0943
     15 C         140.3051  136.0862  154.8084 C.ar    1  UNL1       -0.0045
     16 C         140.2657  135.8706  153.3244 C.ar    1  UNL1       -0.0027
     17 C         141.2856  134.9886  152.6673 C.ar    1  UNL1       -0.0003
     18 C         142.3449  134.3221  153.4941 C.ar    1  UNL1       -0.0000
     19 C         142.3843  134.5376  154.9780 C.ar    1  UNL1       -0.0003
     20 C         141.3644  135.4196  155.6352 C.ar    1  UNL1       -0.0027
     21 C         138.2651  138.8957  154.0535 C.3     1  UNL1        0.0021
     22 C         138.1498  137.5295  154.6619 C.3     1  UNL1        0.0241
     23 C         139.0847  140.0983  162.2612 C.2     1  UNL1        0.2619
     24 O         137.7698  139.5102  162.6796 O.2     1  UNL1       -0.2686
     25 N         139.6664  141.2523  163.0229 N.am    1  UNL1       -0.2975
     26 H         140.5295  141.6383  162.7483 H       1  UNL1        0.1500
     27 C         138.9332  141.8181  164.2028 C.3     1  UNL1        0.0959
     28 C         139.1898  141.2738  165.5768 C.ar    1  UNL1        0.0149
     29 C         138.5814  139.9669  165.9914 C.ar    1  UNL1        0.0036
     30 C         138.8380  139.4226  167.3654 C.ar    1  UNL1        0.0574
     31 C         139.7030  140.1851  168.3247 C.ar    1  UNL1        0.2250
     32 N         140.3115  141.4920  167.9101 N.ar    1  UNL1       -0.2104
     33 C         140.0548  142.0363  166.5361 C.ar    1  UNL1        0.0993
     34 O         139.9597  139.6408  169.6987 O.3     1  UNL1       -0.4561
     35 C         141.3550  139.6203  170.2488 C.3     1  UNL1        0.2542
     36 C         137.9433  142.9282  164.0086 C.3     1  UNL1        0.0242
     37 C         137.7441  143.5258  162.6473 C.3     1  UNL1        0.0021
@<TRIPOS>BOND
     1    21    22    1
     2    14    22    1
     3    14    10    1
     4    10    11   am
     5    11    12    2
     6    11     1    1
     7     1     2   ar
     8     2     3   ar
     9     3    23    1
    10    23    24    2
    11    23    25   am
    12    25    27    1
    13    27    36    1
    14    36    37    1
    15    27    28    1
    16    28    29   ar
    17    29    30   ar
    18    30    31   ar
    19    31    34    1
    20    34    35    1
    21    31    32   ar
    22    32    33   ar
    23     3     4   ar
    24     4     5   ar
    25     5     6    1
    26     6     7    1
    27     7     8    1
    28     8     9    1
    29    14    15    1
    30    15    16   ar
    31    16    17   ar
    32    17    18   ar
    33    18    19   ar
    34    19    20   ar
    35     5     1   ar
    36    20    15   ar
    37    33    28   ar
    38     9     4    1
    39    10    13    1
    40    25    26    1
@<TRIPOS>MOLECULE
*****
 37 40 0 0 0
SMALL
GASTEIGER

@<TRIPOS>ATOM
      1 C         140.8739  141.4361  162.9619 C.ar    1  UNL1        0.0690
      2 C         140.7799  140.8834  161.5706 C.ar    1  UNL1        0.0275
      3 C         141.8912  141.4801  160.7589 C.ar    1  UNL1        0.1140
      4 N         142.6720  142.4016  161.6485 N.ar    1  UNL1       -0.3223
      5 C         142.0433  142.3743  163.0100 C.ar    1  UNL1        0.0717
      6 C         142.6167  143.2074  164.1178 C.3     1  UNL1        0.1857
      7 O         143.8189  144.0677  163.8639 O.3     1  UNL1       -0.3454
      8 C         144.4477  144.0949  162.5023 C.3     1  UNL1        0.1671
      9 C         143.8742  143.2619  161.3946 C.3     1  UNL1        0.1379
     10 N         140.4308  140.2086  165.2086 N.am    1  UNL1       -0.2987
     11 C         139.9591  141.1081  164.1046 C.2     1  UNL1        0.2472
     12 O         138.5728  141.6794  164.1433 O.2     1  UNL1       -0.2701
     13 H         141.3407  139.8336  165.1832 H       1  UNL1        0.1500
     14 C         139.5160  139.8806  166.3512 C.3     1  UNL1        0.0943
     15 C         139.6516  140.6113  167.6541 C.ar    1  UNL1       -0.0045
     16 C         139.0864  140.0167  168.9099 C.ar    1  UNL1       -0.0027
     17 C         139.2220  140.7475  170.2128 C.ar    1  UNL1       -0.0003
     18 C         139.9229  142.0728  170.2600 C.ar    1  UNL1       -0.0000
     19 C         140.4882  142.6674  169.0042 C.ar    1  UNL1       -0.0003
     20 C         140.3525  141.9367  167.7013 C.ar    1  UNL1       -0.0027
     21 C         138.7341  137.6235  165.3296 C.3     1  UNL1        0.0021
     22 C         138.4656  138.8219  166.1908 C.3     1  UNL1        0.0241
     23 C         142.1724  141.2039  159.3116 C.2     1  UNL1        0.2619
     24 O         141.3849  141.9081  158.2468 O.2     1  UNL1       -0.2686
     25 N         143.2412  140.2233  158.9290 N.am    1  UNL1       -0.2975
     26 H         143.7582  139.7611  159.6279 H       1  UNL1        0.1500
     27 C         143.5224  139.9471  157.4817 C.3     1  UNL1        0.0959
     28 C         144.6822  140.6132  156.8026 C.ar    1  UNL1        0.0149
     29 C         145.1977  140.0767  155.5002 C.ar    1  UNL1        0.0036
     30 C         146.3575  140.7428  154.8210 C.ar    1  UNL1        0.0574
     31 C         147.0018  141.9454  155.4444 C.ar    1  UNL1        0.2250
     32 N         146.4863  142.4820  156.7468 N.ar    1  UNL1       -0.2104
     33 C         145.3265  141.8159  157.4260 C.ar    1  UNL1        0.0993
     34 O         148.1615  142.6115  154.7653 O.3     1  UNL1       -0.4561
     35 C         149.4846  141.9099  154.6799 C.3     1  UNL1        0.2542
     36 C         142.6438  139.0048  156.7136 C.3     1  UNL1        0.0242
     37 C         141.9871  137.8524  157.4142 C.3     1  UNL1        0.0021
@<TRIPOS>BOND
     1    21    22    1
     2    14    22    1
     3    14    10    1
     4    10    11   am
     5    11    12    2
     6    11     1    1
     7     1     2   ar
     8     2     3   ar
     9     3    23    1
    10    23    24    2
    11    23    25   am
    12    25    27    1
    13    27    36    1
    14    36    37    1
    15    27    28    1
    16    28    29   ar
    17    29    30   ar
    18    30    31   ar
    19    31    34    1
    20    34    35    1
    21    31    32   ar
    22    32    33   ar
    23     3     4   ar
    24     4     5   ar
    25     5     6    1
    26     6     7    1
    27     7     8    1
    28     8     9    1
    29    14    15    1
    30    15    16   ar
    31    16    17   ar
    32    17    18   ar
    33    18    19   ar
    34    19    20   ar
    35     5     1   ar
    36    20    15   ar
    37    33    28   ar
    38     9     4    1
    39    10    13    1
    40    25    26    1
@<TRIPOS>MOLECULE
*****
 37 40 0 0 0
SMALL
GASTEIGER

@<TRIPOS>ATOM
      1 C         141.3154  138.6919  159.2307 C.ar    1  UNL1        0.0690
      2 C         141.3821  138.0697  160.5939 C.ar    1  UNL1        0.0275
      3 C         140.9703  139.1062  161.5970 C.ar    1  UNL1        0.1140
      4 N         140.6491  140.3689  160.8538 N.ar    1  UNL1       -0.3223
      5 C         140.8625  140.1129  159.3913 C.ar    1  UNL1        0.0717
      6 C         140.6167  141.2067  158.3947 C.3     1  UNL1        0.1857
      7 O         140.1576  142.5565  158.8607 O.3     1  UNL1       -0.3454
      8 C         139.9443  142.8125  160.3232 C.3     1  UNL1        0.1671
      9 C         140.1900  141.7187  161.3198 C.3     1  UNL1        0.1379
     10 N         143.0013  137.4082  157.7274 N.am    1  UNL1       -0.2987
     11 C         141.6441  138.0125  157.9344 C.2     1  UNL1        0.2472
     12 O         140.6157  137.9373  156.8452 O.2     1  UNL1       -0.2701
     13 H         143.6764  137.4575  158.4423 H       1  UNL1        0.1500
     14 C         143.3300  136.7287  156.4311 C.3     1  UNL1        0.0943
     15 C         142.8552  135.3288  156.1766 C.ar    1  UNL1       -0.0045
     16 C         141.9147  135.0505  155.0416 C.ar    1  UNL1       -0.0027
     17 C         141.4399  133.6506  154.7871 C.ar    1  UNL1       -0.0003
     18 C         141.9056  132.5290  155.6676 C.ar    1  UNL1       -0.0000
     19 C         142.8460  132.8073  156.8025 C.ar    1  UNL1       -0.0003
     20 C         143.3209  134.2072  157.0570 C.ar    1  UNL1       -0.0027
     21 C         143.8562  138.8937  155.0948 C.3     1  UNL1        0.0021
     22 C         144.1334  137.4493  155.3894 C.3     1  UNL1        0.0241
     23 C         140.8931  138.9137  163.0826 C.2     1  UNL1        0.2619
     24 O         141.9116  138.0638  163.7827 O.2     1  UNL1       -0.2686
     25 N         139.7973  139.5711  163.8682 N.am    1  UNL1       -0.2975
     26 H         139.1287  140.1290  163.4088 H       1  UNL1        0.1500
     27 C         139.7201  139.3787  165.3538 C.3     1  UNL1        0.0959
     28 C         140.5612  140.2235  166.2642 C.ar    1  UNL1        0.0149
     29 C         140.1621  141.6401  166.5540 C.ar    1  UNL1        0.0036
     30 C         141.0031  142.4849  167.4644 C.ar    1  UNL1        0.0574
     31 C         142.2433  141.9132  168.0851 C.ar    1  UNL1        0.2250
     32 N         142.6424  140.4966  167.7953 N.ar    1  UNL1       -0.2104
     33 C         141.8013  139.6517  166.8849 C.ar    1  UNL1        0.0993
     34 O         143.0843  142.7580  168.9955 O.3     1  UNL1       -0.4561
     35 C         142.6429  143.0080  170.4071 C.3     1  UNL1        0.2542
     36 C         138.8019  138.3413  165.9289 C.3     1  UNL1        0.0242
     37 C         137.8072  138.7228  166.9849 C.3     1  UNL1        0.0021
@<TRIPOS>BOND
     1    21    22    1
     2    14    22    1
     3    14    10    1
     4    10    11   am
     5    11    12    2
     6    11     1    1
     7     1     2   ar
     8     2     3   ar
     9     3    23    1
    10    23    24    2
    11    23    25   am
    12    25    27    1
    13    27    36    1
    14    36    37    1
    15    27    28    1
    16    28    29   ar
    17    29    30   ar
    18    30    31   ar
    19    31    34    1
    20    34    35    1
    21    31    32   ar
    22    32    33   ar
    23     3     4   ar
    24     4     5   ar
    25     5     6    1
    26     6     7    1
    27     7     8    1
    28     8     9    1
    29    14    15    1
    30    15    16   ar
    31    16    17   ar
    32    17    18   ar
    33    18    19   ar
    34    19    20   ar
    35     5     1   ar
    36    20    15   ar
    37    33    28   ar
    38     9     4    1
    39    10    13    1
    40    25    26    1
