@<TRIPOS>MOLECULE
*****
 46 52 0 0 0
SMALL
GASTEIGER

@<TRIPOS>ATOM
      1 C         140.8595  141.1489  161.0513 C.3     1  UNL1        0.0235
      2 C         140.2293  140.0036  160.3156 C.3     1  UNL1        0.0257
      3 C         140.9736  139.3260  159.2035 C.3     1  UNL1        0.0940
      4 N         142.3482  139.7937  158.8270 N.am    1  UNL1       -0.2761
      5 C         143.0926  139.1161  157.7148 C.2     1  UNL1        0.2491
      6 O         144.4672  139.5838  157.3384 O.2     1  UNL1       -0.2699
      7 C         142.9785  140.9390  159.5626 C.3     1  UNL1        0.0940
      8 C         142.2342  141.6165  160.6747 C.3     1  UNL1        0.0257
      9 C         141.0334  142.2666  162.0365 C.ar    1  UNL1       -0.0226
     10 C         141.2511  141.9594  163.4884 C.ar    1  UNL1       -0.0043
     11 C         141.4250  143.0771  164.4737 C.ar    1  UNL1       -0.0003
     12 C         141.3811  144.5019  164.0068 C.ar    1  UNL1       -0.0000
     13 C         141.1633  144.8091  162.5548 C.ar    1  UNL1       -0.0003
     14 C         140.9895  143.6913  161.5697 C.ar    1  UNL1       -0.0043
     15 C         142.4623  137.9709  156.9792 C.ar    1  UNL1        0.0549
     16 C         141.3257  138.2217  156.0331 C.ar    1  UNL1        0.0046
     17 C         140.6955  137.0764  155.2975 C.ar    1  UNL1        0.0015
     18 C         141.2018  135.6803  155.5081 C.ar    1  UNL1        0.0199
     19 C         142.3384  135.4294  156.4543 C.ar    1  UNL1        0.1223
     20 C         142.9687  136.5747  157.1898 C.ar    1  UNL1        0.0244
     21 S         142.8447  134.0333  156.6648 S.O2    1  UNL1        0.0634
     22 O         142.0298  133.5616  155.4971 O.2     1  UNL1       -0.1528
     23 O         143.6597  134.5049  157.8325 O.2     1  UNL1       -0.1528
     24 N         143.3511  132.6371  156.8754 N.3     1  UNL1       -0.1526
     25 C         144.6432  132.4096  157.6024 C.3     1  UNL1        0.1150
     26 C         142.5652  131.4684  156.3590 C.3     1  UNL1        0.1150
     27 C         139.5453  141.0693  161.7699 C.3     1  UNL1        0.0215
     28 C         138.2774  141.4366  161.0574 C.3     1  UNL1        0.0723
     29 C         138.2452  141.3758  160.9163 C.3     1  UNL1        0.0893
     30 C         138.7457  142.6647  160.3345 C.3     1  UNL1        0.0386
     31 C         138.7515  142.8643  158.8479 C.3     1  UNL1        0.0594
     32 C         138.5796  142.6299  157.3763 C.3     1  UNL1        0.0174
     33 C         138.0050  141.2569  157.1897 C.3     1  UNL1        0.0174
     34 C         137.8219  140.6428  158.5459 C.3     1  UNL1        0.0594
     35 C         137.7505  140.2867  160.0114 C.3     1  UNL1        0.0386
     36 N         138.2833  141.6362  159.5708 N.3     1  UNL1       -0.2751
     37 C         137.6853  143.5665  162.8092 C.3     1  UNL1        0.0718
     38 C         137.9656  142.2316  163.4331 C.ar    1  UNL1        0.1207
     39 N         138.0633  141.5938  164.7873 N.ar    1  UNL1       -0.2309
     40 C         138.3974  140.1443  164.5940 C.ar    1  UNL1        0.0983
     41 C         138.6166  139.0261  165.5694 C.ar    1  UNL1        0.0206
     42 C         138.9446  137.6498  165.0713 C.ar    1  UNL1        0.0016
     43 C         139.0534  137.3918  163.5976 C.ar    1  UNL1        0.0016
     44 C         138.8342  138.5100  162.6222 C.ar    1  UNL1        0.0188
     45 C         138.5062  139.8862  163.1204 C.ar    1  UNL1        0.0785
     46 N         138.2393  141.1762  162.4030 N.ar    1  UNL1       -0.3167
@<TRIPOS>BOND
     1    37    38    1
     2    38    39   ar
     3    39    40   ar
     4    40    41   ar
     5    41    42   ar
     6    42    43   ar
     7    43    44   ar
     8    44    45   ar
     9    45    46   ar
    10    46    29    1
    11    29    30    1
    12    30    31    1
    13    31    32    1
    14    32    33    1
    15    33    34    1
    16    34    35    1
    17    34    36    1
    18    36    28    1
    19    28    27    1
    20    27     1    1
    21     1     9    1
    22     9    10   ar
    23    10    11   ar
    24    11    12   ar
    25    12    13   ar
    26    13    14   ar
    27     1     2    1
    28     2     3    1
    29     3     4    1
    30     4     5   am
    31     5     6    2
    32     5    15    1
    33    15    16   ar
    34    16    17   ar
    35    17    18   ar
    36    18    19   ar
    37    19    21    1
    38    21    22    2
    39    21    23    2
    40    21    24    1
    41    24    25    1
    42    24    26    1
    43    19    20   ar
    44     4     7    1
    45     7     8    1
    46    46    38   ar
    47    35    29    1
    48     8     1    1
    49    45    40   ar
    50    36    31    1
    51    14     9   ar
    52    20    15   ar
@<TRIPOS>MOLECULE
*****
 46 52 0 0 0
SMALL
GASTEIGER

@<TRIPOS>ATOM
      1 C         140.8540  141.1434  161.0280 C.3     1  UNL1        0.0235
      2 C         140.2187  139.9829  160.3211 C.3     1  UNL1        0.0257
      3 C         140.9526  139.2859  159.2141 C.3     1  UNL1        0.0940
      4 N         142.3220  139.7493  158.8139 N.am    1  UNL1       -0.2761
      5 C         143.0559  139.0523  157.7069 C.2     1  UNL1        0.2491
      6 O         144.4253  139.5157  157.3068 O.2     1  UNL1       -0.2699
      7 C         142.9574  140.9097  159.5208 C.3     1  UNL1        0.0940
      8 C         142.2235  141.6067  160.6278 C.3     1  UNL1        0.0257
      9 C         141.0359  142.2800  161.9899 C.ar    1  UNL1       -0.0226
     10 C         140.9899  143.6954  161.4956 C.ar    1  UNL1       -0.0043
     11 C         141.1717  144.8321  162.4574 C.ar    1  UNL1       -0.0003
     12 C         141.3995  144.5531  163.9136 C.ar    1  UNL1       -0.0000
     13 C         141.4455  143.1376  164.4078 C.ar    1  UNL1       -0.0003
     14 C         141.2636  142.0010  163.4459 C.ar    1  UNL1       -0.0043
     15 C         142.4205  137.8919  157.0001 C.ar    1  UNL1        0.0549
     16 C         143.0016  136.5165  157.1438 C.ar    1  UNL1        0.0046
     17 C         142.3661  135.3562  156.4369 C.ar    1  UNL1        0.0015
     18 C         141.1494  135.5711  155.5863 C.ar    1  UNL1        0.0199
     19 C         140.5682  136.9465  155.4427 C.ar    1  UNL1        0.1223
     20 C         141.2038  138.1068  156.1495 C.ar    1  UNL1        0.0244
     21 S         139.3516  137.1614  154.5921 S.O2    1  UNL1        0.0634
     22 O         140.2281  137.3996  153.3984 O.2     1  UNL1       -0.1528
     23 O         138.4750  136.9233  155.7859 O.2     1  UNL1       -0.1528
     24 N         138.1349  137.3764  153.7416 N.3     1  UNL1       -0.1526
     25 C         136.9374  138.0789  154.3095 C.3     1  UNL1        0.1150
     26 C         138.1156  136.8887  152.3232 C.3     1  UNL1        0.1150
     27 C         139.5479  141.0747  161.7621 C.3     1  UNL1        0.0215
     28 C         138.2717  141.4276  161.0571 C.3     1  UNL1        0.0723
     29 C         138.2393  141.3654  160.9166 C.3     1  UNL1        0.0893
     30 C         138.7187  142.6569  160.3229 C.3     1  UNL1        0.0386
     31 C         138.7116  142.8466  158.8350 C.3     1  UNL1        0.0594
     32 C         138.5324  142.6001  157.3662 C.3     1  UNL1        0.0174
     33 C         137.9748  141.2185  157.1927 C.3     1  UNL1        0.0174
     34 C         137.8092  140.6110  158.5542 C.3     1  UNL1        0.0594
     35 C         137.7528  140.2638  160.0224 C.3     1  UNL1        0.0386
     36 N         138.2646  141.6173  159.5692 N.3     1  UNL1       -0.2751
     37 C         137.7142  143.5727  162.8002 C.3     1  UNL1        0.0718
     38 C         137.9905  142.2398  163.4303 C.ar    1  UNL1        0.1207
     39 N         138.0967  141.6102  164.7877 N.ar    1  UNL1       -0.2309
     40 C         138.4182  140.1571  164.6008 C.ar    1  UNL1        0.0983
     41 C         138.6386  139.0437  165.5815 C.ar    1  UNL1        0.0206
     42 C         138.9515  137.6618  165.0894 C.ar    1  UNL1        0.0016
     43 C         139.0441  137.3932  163.6165 C.ar    1  UNL1        0.0016
     44 C         138.8237  138.5065  162.6358 C.ar    1  UNL1        0.0188
     45 C         138.5107  139.8885  163.1280 C.ar    1  UNL1        0.0785
     46 N         138.2464  141.1757  162.4046 N.ar    1  UNL1       -0.3167
@<TRIPOS>BOND
     1    37    38    1
     2    38    39   ar
     3    39    40   ar
     4    40    41   ar
     5    41    42   ar
     6    42    43   ar
     7    43    44   ar
     8    44    45   ar
     9    45    46   ar
    10    46    29    1
    11    29    30    1
    12    30    31    1
    13    31    32    1
    14    32    33    1
    15    33    34    1
    16    34    35    1
    17    34    36    1
    18    36    28    1
    19    28    27    1
    20    27     1    1
    21     1     9    1
    22     9    10   ar
    23    10    11   ar
    24    11    12   ar
    25    12    13   ar
    26    13    14   ar
    27     1     2    1
    28     2     3    1
    29     3     4    1
    30     4     5   am
    31     5     6    2
    32     5    15    1
    33    15    16   ar
    34    16    17   ar
    35    17    18   ar
    36    18    19   ar
    37    19    21    1
    38    21    22    2
    39    21    23    2
    40    21    24    1
    41    24    25    1
    42    24    26    1
    43    19    20   ar
    44     4     7    1
    45     7     8    1
    46    46    38   ar
    47    35    29    1
    48     8     1    1
    49    45    40   ar
    50    36    31    1
    51    14     9   ar
    52    20    15   ar
@<TRIPOS>MOLECULE
*****
 46 52 0 0 0
SMALL
GASTEIGER

@<TRIPOS>ATOM
      1 C         140.3818  142.2830  161.5623 C.3     1  UNL1        0.0235
      2 C         141.2525  141.7413  160.4676 C.3     1  UNL1        0.0257
      3 C         140.6309  141.0912  159.2672 C.3     1  UNL1        0.0940
      4 N         139.1385  140.9829  159.1615 N.am    1  UNL1       -0.2761
      5 C         138.5169  140.3329  157.9611 C.2     1  UNL1        0.2491
      6 O         137.0245  140.2246  157.8553 O.2     1  UNL1       -0.2699
      7 C         138.2679  141.5247  160.2562 C.3     1  UNL1        0.0940
      8 C         138.8894  142.1747  161.4565 C.3     1  UNL1        0.0257
      9 C         139.9810  142.9419  162.8490 C.ar    1  UNL1       -0.0226
     10 C         140.2461  142.2568  164.1567 C.ar    1  UNL1       -0.0043
     11 C         139.8452  142.9157  165.4434 C.ar    1  UNL1       -0.0003
     12 C         139.1794  144.2597  165.4220 C.ar    1  UNL1       -0.0000
     13 C         138.9143  144.9447  164.1142 C.ar    1  UNL1       -0.0003
     14 C         139.3152  144.2858  162.8276 C.ar    1  UNL1       -0.0043
     15 C         139.3877  139.7911  156.8664 C.ar    1  UNL1        0.0549
     16 C         139.6558  140.6169  155.6432 C.ar    1  UNL1        0.0046
     17 C         140.5266  140.0750  154.5486 C.ar    1  UNL1        0.0015
     18 C         141.1292  138.7074  154.6772 C.ar    1  UNL1        0.0199
     19 C         140.8610  137.8816  155.9004 C.ar    1  UNL1        0.1223
     20 C         139.9903  138.4235  156.9950 C.ar    1  UNL1        0.0244
     21 S         141.4636  136.5141  156.0289 S.O2    1  UNL1        0.0634
     22 O         140.5656  136.0156  154.9357 O.2     1  UNL1       -0.1528
     23 O         142.3617  137.0125  157.1222 O.2     1  UNL1       -0.1528
     24 N         142.0663  135.1465  156.1575 N.3     1  UNL1       -0.1526
     25 C         143.2488  134.9293  157.0543 C.3     1  UNL1        0.1150
     26 C         141.4863  133.9961  155.3892 C.3     1  UNL1        0.1150
     27 C         141.7349  142.6201  162.1149 C.3     1  UNL1        0.0215
     28 C         142.5788  143.6651  161.4470 C.3     1  UNL1        0.0723
     29 C         142.5985  143.6649  161.2912 C.3     1  UNL1        0.0893
     30 C         141.5287  144.7150  161.2350 C.3     1  UNL1        0.0386
     31 C         141.1080  145.2870  159.9137 C.3     1  UNL1        0.0594
     32 C         141.0144  145.5584  158.4414 C.3     1  UNL1        0.0174
     33 C         142.0067  144.6761  157.7435 C.3     1  UNL1        0.0174
     34 C         142.7135  143.8595  158.7844 C.3     1  UNL1        0.0594
     35 C         143.2474  143.1870  160.0262 C.3     1  UNL1        0.0386
     36 N         142.1581  144.2370  160.1258 N.3     1  UNL1       -0.2751
     37 C         142.6715  145.2698  163.7640 C.3     1  UNL1        0.0718
     38 C         143.0849  143.8357  163.9141 C.ar    1  UNL1        0.1207
     39 N         143.5544  142.8795  164.9701 N.ar    1  UNL1       -0.2309
     40 C         143.7790  141.5459  164.3213 C.ar    1  UNL1        0.0983
     41 C         144.2419  140.2285  164.8690 C.ar    1  UNL1        0.0206
     42 C         144.3740  139.0430  163.9597 C.ar    1  UNL1        0.0016
     43 C         144.0433  139.1748  162.5026 C.ar    1  UNL1        0.0016
     44 C         143.5804  140.4923  161.9548 C.ar    1  UNL1        0.0188
     45 C         143.4482  141.6778  162.8642 C.ar    1  UNL1        0.0785
     46 N         143.0193  143.0929  162.6125 N.ar    1  UNL1       -0.3167
@<TRIPOS>BOND
     1    37    38    1
     2    38    39   ar
     3    39    40   ar
     4    40    41   ar
     5    41    42   ar
     6    42    43   ar
     7    43    44   ar
     8    44    45   ar
     9    45    46   ar
    10    46    29    1
    11    29    30    1
    12    30    31    1
    13    31    32    1
    14    32    33    1
    15    33    34    1
    16    34    35    1
    17    34    36    1
    18    36    28    1
    19    28    27    1
    20    27     1    1
    21     1     9    1
    22     9    10   ar
    23    10    11   ar
    24    11    12   ar
    25    12    13   ar
    26    13    14   ar
    27     1     2    1
    28     2     3    1
    29     3     4    1
    30     4     5   am
    31     5     6    2
    32     5    15    1
    33    15    16   ar
    34    16    17   ar
    35    17    18   ar
    36    18    19   ar
    37    19    21    1
    38    21    22    2
    39    21    23    2
    40    21    24    1
    41    24    25    1
    42    24    26    1
    43    19    20   ar
    44     4     7    1
    45     7     8    1
    46    46    38   ar
    47    35    29    1
    48     8     1    1
    49    45    40   ar
    50    36    31    1
    51    14     9   ar
    52    20    15   ar
@<TRIPOS>MOLECULE
*****
 46 52 0 0 0
SMALL
GASTEIGER

@<TRIPOS>ATOM
      1 C         140.4908  141.6121  161.3187 C.3     1  UNL1        0.0235
      2 C         141.7271  141.1111  160.6327 C.3     1  UNL1        0.0257
      3 C         141.6108  140.2900  159.3827 C.3     1  UNL1        0.0940
      4 N         140.2582  139.9699  158.8188 N.am    1  UNL1       -0.2761
      5 C         140.1419  139.1488  157.5688 C.2     1  UNL1        0.2491
      6 O         138.7893  138.8288  157.0049 O.2     1  UNL1       -0.2699
      7 C         139.0219  140.4709  159.5048 C.3     1  UNL1        0.0940
      8 C         139.1382  141.2919  160.7546 C.3     1  UNL1        0.0257
      9 C         139.6190  142.3082  162.3215 C.ar    1  UNL1       -0.0226
     10 C         139.4870  141.7579  163.7106 C.ar    1  UNL1       -0.0043
     11 C         138.6152  142.4541  164.7134 C.ar    1  UNL1       -0.0003
     12 C         137.8755  143.7004  164.3269 C.ar    1  UNL1       -0.0000
     13 C         138.0075  144.2507  162.9377 C.ar    1  UNL1       -0.0003
     14 C         138.8793  143.5545  161.9350 C.ar    1  UNL1       -0.0043
     15 C         141.3783  138.6479  156.8829 C.ar    1  UNL1        0.0549
     16 C         142.2417  139.5969  156.1059 C.ar    1  UNL1        0.0046
     17 C         143.4780  139.0958  155.4200 C.ar    1  UNL1        0.0015
     18 C         143.8509  137.6458  155.5112 C.ar    1  UNL1        0.0199
     19 C         142.9875  136.6968  156.2882 C.ar    1  UNL1        0.1223
     20 C         141.7512  137.1978  156.9741 C.ar    1  UNL1        0.0244
     21 S         143.3604  135.2468  156.3794 S.O2    1  UNL1        0.0634
     22 O         143.4790  135.1833  154.8854 O.2     1  UNL1       -0.1528
     23 O         143.2419  135.3102  157.8734 O.2     1  UNL1       -0.1528
     24 N         143.7333  133.7967  156.4706 N.3     1  UNL1       -0.1526
     25 C         144.3657  133.2622  157.7213 C.3     1  UNL1        0.1150
     26 C         143.4739  132.8812  155.3111 C.3     1  UNL1        0.1150
     27 C         141.5406  142.1739  162.2309 C.3     1  UNL1        0.0215
     28 C         142.4078  143.3071  161.7683 C.3     1  UNL1        0.0723
     29 C         142.4737  143.2980  161.6261 C.3     1  UNL1        0.0893
     30 C         141.4015  144.2360  161.1562 C.3     1  UNL1        0.0386
     31 C         141.3630  144.6728  159.7217 C.3     1  UNL1        0.0594
     32 C         141.7021  144.8314  158.2692 C.3     1  UNL1        0.0174
     33 C         142.9178  144.0005  157.9835 C.3     1  UNL1        0.0174
     34 C         143.3302  143.3283  159.2595 C.3     1  UNL1        0.0594
     35 C         143.5072  142.7969  160.6615 C.3     1  UNL1        0.0386
     36 N         142.3692  143.7438  160.3339 N.3     1  UNL1       -0.2751
     37 C         141.6014  145.0406  163.8393 C.3     1  UNL1        0.0718
     38 C         142.0891  143.6809  164.2435 C.ar    1  UNL1        0.1207
     39 N         142.2960  142.8544  165.4780 N.ar    1  UNL1       -0.2309
     40 C         142.8470  141.5239  165.0581 C.ar    1  UNL1        0.0983
     41 C         143.2443  140.3091  165.8432 C.ar    1  UNL1        0.0206
     42 C         143.7753  139.0986  165.1342 C.ar    1  UNL1        0.0016
     43 C         143.9090  139.1029  163.6402 C.ar    1  UNL1        0.0016
     44 C         143.5116  140.3177  162.8551 C.ar    1  UNL1        0.0188
     45 C         142.9807  141.5282  163.5641 C.ar    1  UNL1        0.0785
     46 N         142.5122  142.8613  163.0606 N.ar    1  UNL1       -0.3167
@<TRIPOS>BOND
     1    37    38    1
     2    38    39   ar
     3    39    40   ar
     4    40    41   ar
     5    41    42   ar
     6    42    43   ar
     7    43    44   ar
     8    44    45   ar
     9    45    46   ar
    10    46    29    1
    11    29    30    1
    12    30    31    1
    13    31    32    1
    14    32    33    1
    15    33    34    1
    16    34    35    1
    17    34    36    1
    18    36    28    1
    19    28    27    1
    20    27     1    1
    21     1     9    1
    22     9    10   ar
    23    10    11   ar
    24    11    12   ar
    25    12    13   ar
    26    13    14   ar
    27     1     2    1
    28     2     3    1
    29     3     4    1
    30     4     5   am
    31     5     6    2
    32     5    15    1
    33    15    16   ar
    34    16    17   ar
    35    17    18   ar
    36    18    19   ar
    37    19    21    1
    38    21    22    2
    39    21    23    2
    40    21    24    1
    41    24    25    1
    42    24    26    1
    43    19    20   ar
    44     4     7    1
    45     7     8    1
    46    46    38   ar
    47    35    29    1
    48     8     1    1
    49    45    40   ar
    50    36    31    1
    51    14     9   ar
    52    20    15   ar
@<TRIPOS>MOLECULE
*****
 46 52 0 0 0
SMALL
GASTEIGER

@<TRIPOS>ATOM
      1 C         142.4813  141.6558  161.3821 C.3     1  UNL1        0.0235
      2 C         141.5428  140.7667  160.6216 C.3     1  UNL1        0.0257
      3 C         141.9586  140.1935  159.2992 C.3     1  UNL1        0.0940
      4 N         143.3131  140.5094  158.7375 N.am    1  UNL1       -0.2761
      5 C         143.7290  139.9363  157.4151 C.2     1  UNL1        0.2491
      6 O         145.0834  140.2522  156.8534 O.2     1  UNL1       -0.2699
      7 C         144.2517  141.3986  159.4981 C.3     1  UNL1        0.0940
      8 C         143.8359  141.9718  160.8203 C.3     1  UNL1        0.0257
      9 C         143.0138  142.5422  162.4689 C.ar    1  UNL1       -0.0226
     10 C         143.2049  144.0081  162.2149 C.ar    1  UNL1       -0.0043
     11 C         143.7374  144.8944  163.3017 C.ar    1  UNL1       -0.0003
     12 C         144.0788  144.3147  164.6423 C.ar    1  UNL1       -0.0000
     13 C         143.8877  142.8487  164.8963 C.ar    1  UNL1       -0.0003
     14 C         143.3552  141.9625  163.8095 C.ar    1  UNL1       -0.0043
     15 C         142.7903  139.0471  156.6546 C.ar    1  UNL1        0.0549
     16 C         141.7132  139.6486  155.8015 C.ar    1  UNL1        0.0046
     17 C         140.7746  138.7594  155.0410 C.ar    1  UNL1        0.0015
     18 C         140.9131  137.2687  155.1337 C.ar    1  UNL1        0.0199
     19 C         141.9902  136.6672  155.9869 C.ar    1  UNL1        0.1223
     20 C         142.9288  137.5564  156.7474 C.ar    1  UNL1        0.0244
     21 S         142.1287  135.1765  156.0796 S.O2    1  UNL1        0.0634
     22 O         143.1986  135.3405  157.1181 O.2     1  UNL1       -0.1528
     23 O         141.0588  135.0125  155.0411 O.2     1  UNL1       -0.1528
     24 N         142.2672  133.6858  156.1723 N.3     1  UNL1       -0.1526
     25 C         141.4119  132.7985  155.3172 C.3     1  UNL1        0.1150
     26 C         143.2609  133.0823  157.1201 C.3     1  UNL1        0.1150
     27 C         141.3119  141.6477  162.3213 C.3     1  UNL1        0.0215
     28 C         140.0483  142.3670  161.9521 C.3     1  UNL1        0.0723
     29 C         139.9875  142.3541  161.8079 C.3     1  UNL1        0.0893
     30 C         140.6455  143.6664  161.4992 C.3     1  UNL1        0.0386
     31 C         140.5003  144.2759  160.1363 C.3     1  UNL1        0.0594
     32 C         140.1015  144.4961  158.7072 C.3     1  UNL1        0.0174
     33 C         139.2579  143.3329  158.2768 C.3     1  UNL1        0.0174
     34 C         139.1353  142.3937  159.4400 C.3     1  UNL1        0.0594
     35 C         139.1844  141.6516  160.7538 C.3     1  UNL1        0.0386
     36 N         139.9032  142.9765  160.5893 N.3     1  UNL1       -0.2751
     37 C         140.1622  143.9791  164.2624 C.3     1  UNL1        0.0718
     38 C         140.2284  142.4945  164.4664 C.ar    1  UNL1        0.1207
     39 N         140.3625  141.4915  165.5736 N.ar    1  UNL1       -0.2309
     40 C         140.3498  140.1217  164.9624 C.ar    1  UNL1        0.0983
     41 C         140.4492  138.7522  165.5661 C.ar    1  UNL1        0.0206
     42 C         140.4066  137.5392  164.6849 C.ar    1  UNL1        0.0016
     43 C         140.2645  137.6956  163.1998 C.ar    1  UNL1        0.0016
     44 C         140.1651  139.0651  162.5961 C.ar    1  UNL1        0.0188
     45 C         140.2078  140.2782  163.4773 C.ar    1  UNL1        0.0785
     46 N         140.1327  141.7446  163.1708 N.ar    1  UNL1       -0.3167
@<TRIPOS>BOND
     1    37    38    1
     2    38    39   ar
     3    39    40   ar
     4    40    41   ar
     5    41    42   ar
     6    42    43   ar
     7    43    44   ar
     8    44    45   ar
     9    45    46   ar
    10    46    29    1
    11    29    30    1
    12    30    31    1
    13    31    32    1
    14    32    33    1
    15    33    34    1
    16    34    35    1
    17    34    36    1
    18    36    28    1
    19    28    27    1
    20    27     1    1
    21     1     9    1
    22     9    10   ar
    23    10    11   ar
    24    11    12   ar
    25    12    13   ar
    26    13    14   ar
    27     1     2    1
    28     2     3    1
    29     3     4    1
    30     4     5   am
    31     5     6    2
    32     5    15    1
    33    15    16   ar
    34    16    17   ar
    35    17    18   ar
    36    18    19   ar
    37    19    21    1
    38    21    22    2
    39    21    23    2
    40    21    24    1
    41    24    25    1
    42    24    26    1
    43    19    20   ar
    44     4     7    1
    45     7     8    1
    46    46    38   ar
    47    35    29    1
    48     8     1    1
    49    45    40   ar
    50    36    31    1
    51    14     9   ar
    52    20    15   ar
