@<TRIPOS>MOLECULE
*****
 41 45 0 0 0
SMALL
GASTEIGER

@<TRIPOS>ATOM
      1 N         139.6731  143.7753  160.3850 N.pl3   1  UNL1       -0.3414
      2 C         139.1904  143.7148  161.8039 C.ar    1  UNL1        0.1432
      3 N         137.9241  144.4168  162.1959 N.ar    1  UNL1       -0.2265
      4 C         137.4414  144.3563  163.6148 C.ar    1  UNL1        0.1193
      5 C         138.2248  143.5937  164.6417 C.ar    1  UNL1        0.1020
      6 N         139.4911  142.8917  164.2497 N.ar    1  UNL1       -0.2885
      7 C         140.4675  142.0687  165.0368 C.ar    1  UNL1        0.1239
      8 N         141.5537  141.6207  164.1044 N.ar    1  UNL1       -0.2305
      9 C         141.2486  142.1667  162.7410 C.ar    1  UNL1        0.1013
     10 C         139.9739  142.9522  162.8308 C.ar    1  UNL1        0.1141
     11 H         139.1589  144.2758  159.7110 H       1  UNL1        0.1438
     12 H         140.5043  143.3146  160.1277 H       1  UNL1        0.1438
     13 C         140.3740  141.7499  166.4995 C.3     1  UNL1        0.0576
     14 C         139.9316  140.3869  166.9433 C.3     1  UNL1        0.0075
     15 C         139.8381  140.0681  168.4060 C.3     1  UNL1        0.0008
     16 C         140.1871  141.1120  169.4250 C.3     1  UNL1        0.0056
     17 C         140.6295  142.4749  168.9813 C.3     1  UNL1        0.0370
     18 C         140.7229  142.7937  167.5185 C.3     1  UNL1        0.0130
     19 C         140.9785  143.5188  170.0002 C.2     1  UNL1        0.0500
     20 O         140.0059  144.6174  170.3119 O.co2   1  UNL1       -0.5492
     21 O         142.3000  143.4642  170.7077 O.co2   1  UNL1       -0.5492
     22 C         142.0734  141.9630  161.5048 C.ar    1  UNL1        0.0192
     23 C         143.1556  142.9411  161.1556 C.ar    1  UNL1        0.0017
     24 C         143.9805  142.7374  159.9194 C.ar    1  UNL1        0.0046
     25 C         143.7231  141.5555  159.0324 C.ar    1  UNL1        0.0537
     26 C         142.6408  140.5773  159.3815 C.ar    1  UNL1        0.0046
     27 C         141.8160  140.7810  160.6177 C.ar    1  UNL1        0.0017
     28 C         144.5479  141.3518  157.7962 C.2     1  UNL1        0.2505
     29 O         144.7545  139.9694  157.2519 O.2     1  UNL1       -0.2698
     30 N         145.1661  142.5304  157.1044 N.am    1  UNL1       -0.2658
     31 H         145.0305  143.4377  157.4617 H       1  UNL1        0.1566
     32 C         145.9909  142.3266  155.8682 C.ar    1  UNL1        0.1343
     33 C         147.4774  142.1577  155.9778 C.ar    1  UNL1        0.0383
     34 C         148.3023  141.9539  154.7417 C.ar    1  UNL1        0.0757
     35 C         147.6407  141.9190  153.3960 C.ar    1  UNL1        0.0246
     36 C         146.1543  142.0880  153.2863 C.ar    1  UNL1        0.1003
     37 N         145.3294  142.2918  154.5225 N.ar    1  UNL1       -0.2290
     38 C         149.7887  141.7850  154.8513 C.3     1  UNL1        0.4187
     39 F         151.2751  141.6160  154.9610 F       1  UNL1       -0.1659
     40 F         149.7102  142.0516  156.3254 F       1  UNL1       -0.1659
     41 F         149.8671  141.5184  153.3773 F       1  UNL1       -0.1659
@<TRIPOS>UNITY_ATOM_ATTR
20 1
charge -1
@<TRIPOS>BOND
     1     1     2    1
     2     2     3   ar
     3     3     4   ar
     4     4     5   ar
     5     5     6   ar
     6     6     7   ar
     7    13     7    1
     8    13    14    1
     9    14    15    1
    10    15    16    1
    11    16    17    1
    12    17    19    1
    13    19    20   ar
    14    19    21   ar
    15    17    18    1
    16     7     8   ar
    17     8     9   ar
    18     9    22    1
    19    22    23   ar
    20    23    24   ar
    21    24    25   ar
    22    25    28    1
    23    28    29    2
    24    28    30   am
    25    30    32    1
    26    32    33   ar
    27    33    34   ar
    28    34    38    1
    29    38    39    1
    30    38    40    1
    31    38    41    1
    32    34    35   ar
    33    35    36   ar
    34    36    37   ar
    35    25    26   ar
    36    26    27   ar
    37     9    10   ar
    38    10     2   ar
    39    10     6   ar
    40    18    13    1
    41    27    22   ar
    42    37    32   ar
    43     1    11    1
    44     1    12    1
    45    30    31    1
@<TRIPOS>MOLECULE
*****
 41 45 0 0 0
SMALL
GASTEIGER

@<TRIPOS>ATOM
      1 N         139.1012  140.0264  161.1630 N.pl3   1  UNL1       -0.3414
      2 C         139.2568  139.5091  162.5623 C.ar    1  UNL1        0.1432
      3 N         138.6942  138.1690  162.9334 N.ar    1  UNL1       -0.2265
      4 C         138.8498  137.6517  164.3328 C.ar    1  UNL1        0.1193
      5 C         139.5680  138.4744  165.3610 C.ar    1  UNL1        0.1020
      6 N         140.1305  139.8145  164.9899 N.ar    1  UNL1       -0.2885
      7 C         140.8818  140.8423  165.7832 C.ar    1  UNL1        0.1239
      8 N         141.1905  141.9948  164.8741 N.ar    1  UNL1       -0.2305
      9 C         140.6300  141.6793  163.5190 C.ar    1  UNL1        0.1013
     10 C         139.9749  140.3318  163.5906 C.ar    1  UNL1        0.1141
     11 H         138.6298  139.4864  160.4881 H       1  UNL1        0.1438
     12 H         139.4704  140.9060  160.9194 H       1  UNL1        0.1438
     13 C         141.2582  140.7361  167.2313 C.3     1  UNL1        0.0576
     14 C         142.2236  139.6791  167.6797 C.3     1  UNL1        0.0075
     15 C         142.6001  139.5730  169.1279 C.3     1  UNL1        0.0008
     16 C         142.0112  140.5237  170.1275 C.3     1  UNL1        0.0056
     17 C         141.0459  141.5806  169.6791 C.3     1  UNL1        0.0370
     18 C         140.6695  141.6868  168.2310 C.3     1  UNL1        0.0130
     19 C         140.4571  142.5313  170.6787 C.2     1  UNL1        0.0500
     20 O         140.3500  142.1322  172.1207 O.co2   1  UNL1       -0.5492
     21 O         139.9753  143.8813  170.2365 O.co2   1  UNL1       -0.5492
     22 C         140.7105  142.5572  162.3054 C.ar    1  UNL1        0.0192
     23 C         139.7129  143.6601  162.1100 C.ar    1  UNL1        0.0017
     24 C         139.7934  144.5380  160.8964 C.ar    1  UNL1        0.0046
     25 C         140.8716  144.3129  159.8781 C.ar    1  UNL1        0.0537
     26 C         141.8692  143.2099  160.0734 C.ar    1  UNL1        0.0046
     27 C         141.7887  142.3321  161.2871 C.ar    1  UNL1        0.0017
     28 C         140.9521  145.1907  158.6645 C.2     1  UNL1        0.2505
     29 O         142.2271  145.9131  158.3447 O.2     1  UNL1       -0.2698
     30 N         139.7575  145.3462  157.7707 N.am    1  UNL1       -0.2658
     31 H         138.9206  144.8721  157.9806 H       1  UNL1        0.1566
     32 C         139.8381  146.2241  156.5571 C.ar    1  UNL1        0.1343
     33 C         139.2319  147.5959  156.5823 C.ar    1  UNL1        0.0383
     34 C         139.3124  148.4739  155.3687 C.ar    1  UNL1        0.0757
     35 C         139.9991  147.9800  154.1300 C.ar    1  UNL1        0.0246
     36 C         140.6053  146.6082  154.1049 C.ar    1  UNL1        0.1003
     37 N         140.5248  145.7302  155.3184 N.ar    1  UNL1       -0.2290
     38 C         138.7062  149.8457  155.3939 C.3     1  UNL1        0.4187
     39 F         138.1000  151.2175  155.4191 F       1  UNL1       -0.1659
     40 F         138.1964  149.5950  156.7822 F       1  UNL1       -0.1659
     41 F         139.2159  150.0964  154.0056 F       1  UNL1       -0.1659
@<TRIPOS>UNITY_ATOM_ATTR
20 1
charge -1
@<TRIPOS>BOND
     1     1     2    1
     2     2     3   ar
     3     3     4   ar
     4     4     5   ar
     5     5     6   ar
     6     6     7   ar
     7    13     7    1
     8    13    14    1
     9    14    15    1
    10    15    16    1
    11    16    17    1
    12    17    19    1
    13    19    20   ar
    14    19    21   ar
    15    17    18    1
    16     7     8   ar
    17     8     9   ar
    18     9    22    1
    19    22    23   ar
    20    23    24   ar
    21    24    25   ar
    22    25    28    1
    23    28    29    2
    24    28    30   am
    25    30    32    1
    26    32    33   ar
    27    33    34   ar
    28    34    38    1
    29    38    39    1
    30    38    40    1
    31    38    41    1
    32    34    35   ar
    33    35    36   ar
    34    36    37   ar
    35    25    26   ar
    36    26    27   ar
    37     9    10   ar
    38    10     2   ar
    39    10     6   ar
    40    18    13    1
    41    27    22   ar
    42    37    32   ar
    43     1    11    1
    44     1    12    1
    45    30    31    1
@<TRIPOS>MOLECULE
*****
 41 45 0 0 0
SMALL
GASTEIGER

@<TRIPOS>ATOM
      1 N         139.3031  142.8331  160.5377 N.pl3   1  UNL1       -0.3414
      2 C         139.0941  143.1685  161.9847 C.ar    1  UNL1        0.1432
      3 N         138.3864  144.4347  162.3664 N.ar    1  UNL1       -0.2265
      4 C         138.1774  144.7702  163.8134 C.ar    1  UNL1        0.1193
      5 C         138.6761  143.8393  164.8787 C.ar    1  UNL1        0.1020
      6 N         139.3837  142.5730  164.4969 N.ar    1  UNL1       -0.2885
      7 C         139.9814  141.4702  165.3194 C.ar    1  UNL1        0.1239
      8 N         140.5599  140.4532  164.3807 N.ar    1  UNL1       -0.2305
      9 C         140.3196  140.9275  162.9781 C.ar    1  UNL1        0.1013
     10 C         139.5927  142.2376  163.0499 C.ar    1  UNL1        0.1141
     11 H         138.9758  143.4440  159.8385 H       1  UNL1        0.1438
     12 H         139.7675  142.0019  160.2871 H       1  UNL1        0.1438
     13 C         139.9979  141.3972  166.8175 C.3     1  UNL1        0.0576
     14 C         139.5087  140.1617  167.5137 C.3     1  UNL1        0.0075
     15 C         139.5251  140.0888  169.0118 C.3     1  UNL1        0.0008
     16 C         140.0307  141.2511  169.8138 C.3     1  UNL1        0.0056
     17 C         140.5198  142.4865  169.1177 C.3     1  UNL1        0.0370
     18 C         140.5034  142.5595  167.6196 C.3     1  UNL1        0.0130
     19 C         141.0254  143.6489  169.9198 C.2     1  UNL1        0.0500
     20 O         142.4498  143.6732  170.3894 O.co2   1  UNL1       -0.5492
     21 O         140.1066  144.7870  170.2522 O.co2   1  UNL1       -0.5492
     22 C         140.7336  140.2165  161.7239 C.ar    1  UNL1        0.0192
     23 C         139.8011  139.2379  161.0738 C.ar    1  UNL1        0.0017
     24 C         140.2151  138.5269  159.8196 C.ar    1  UNL1        0.0046
     25 C         141.5616  138.7946  159.2154 C.ar    1  UNL1        0.0537
     26 C         142.4942  139.7732  159.8654 C.ar    1  UNL1        0.0046
     27 C         142.0803  140.4842  161.1196 C.ar    1  UNL1        0.0017
     28 C         141.9756  138.0836  157.9611 C.2     1  UNL1        0.2505
     29 O         143.4027  138.1411  157.5027 O.2     1  UNL1       -0.2698
     30 N         140.9626  137.3151  157.1654 N.am    1  UNL1       -0.2658
     31 H         140.0259  137.2774  157.4663 H       1  UNL1        0.1566
     32 C         141.3766  136.6042  155.9111 C.ar    1  UNL1        0.1343
     33 C         142.0283  135.2557  155.9938 C.ar    1  UNL1        0.0383
     34 C         142.4424  134.5446  154.7396 C.ar    1  UNL1        0.0757
     35 C         142.2048  135.1822  153.4028 C.ar    1  UNL1        0.0246
     36 C         141.5531  136.5307  153.3202 C.ar    1  UNL1        0.1003
     37 N         141.1390  137.2417  154.5743 N.ar    1  UNL1       -0.2290
     38 C         143.0940  133.1961  154.8222 C.3     1  UNL1        0.4187
     39 F         143.7457  131.8476  154.9049 F       1  UNL1       -0.1659
     40 F         142.5361  132.8440  153.4751 F       1  UNL1       -0.1659
     41 F         143.6519  133.5483  156.1693 F       1  UNL1       -0.1659
@<TRIPOS>UNITY_ATOM_ATTR
20 1
charge -1
@<TRIPOS>BOND
     1     1     2    1
     2     2     3   ar
     3     3     4   ar
     4     4     5   ar
     5     5     6   ar
     6     6     7   ar
     7    13     7    1
     8    13    14    1
     9    14    15    1
    10    15    16    1
    11    16    17    1
    12    17    19    1
    13    19    20   ar
    14    19    21   ar
    15    17    18    1
    16     7     8   ar
    17     8     9   ar
    18     9    22    1
    19    22    23   ar
    20    23    24   ar
    21    24    25   ar
    22    25    28    1
    23    28    29    2
    24    28    30   am
    25    30    32    1
    26    32    33   ar
    27    33    34   ar
    28    34    38    1
    29    38    39    1
    30    38    40    1
    31    38    41    1
    32    34    35   ar
    33    35    36   ar
    34    36    37   ar
    35    25    26   ar
    36    26    27   ar
    37     9    10   ar
    38    10     2   ar
    39    10     6   ar
    40    18    13    1
    41    27    22   ar
    42    37    32   ar
    43     1    11    1
    44     1    12    1
    45    30    31    1
@<TRIPOS>MOLECULE
*****
 41 45 0 0 0
SMALL
GASTEIGER

@<TRIPOS>ATOM
      1 N         139.8034  139.7442  161.7552 N.pl3   1  UNL1       -0.3414
      2 C         139.6102  139.9990  163.2207 C.ar    1  UNL1        0.1432
      3 N         138.3448  139.5625  163.8974 N.ar    1  UNL1       -0.2265
      4 C         138.1516  139.8174  165.3629 C.ar    1  UNL1        0.1193
      5 C         139.2238  140.5088  166.1517 C.ar    1  UNL1        0.1020
      6 N         140.4892  140.9454  165.4749 N.ar    1  UNL1       -0.2885
      7 C         141.7132  141.6435  165.9893 C.ar    1  UNL1        0.1239
      8 N         142.6628  141.8201  164.8417 N.ar    1  UNL1       -0.2305
      9 C         142.0258  141.2311  163.6181 C.ar    1  UNL1        0.1013
     10 C         140.6824  140.6905  164.0094 C.ar    1  UNL1        0.1141
     11 H         139.0997  139.2903  161.2375 H       1  UNL1        0.1438
     12 H         140.6340  140.0307  161.3110 H       1  UNL1        0.1438
     13 C         141.9465  142.0872  167.4031 C.3     1  UNL1        0.0576
     14 C         143.2960  141.9070  168.0327 C.3     1  UNL1        0.0075
     15 C         143.5293  142.3507  169.4465 C.3     1  UNL1        0.0008
     16 C         142.4131  142.9745  170.2306 C.3     1  UNL1        0.0056
     17 C         141.0637  143.1547  169.6010 C.3     1  UNL1        0.0370
     18 C         140.8304  142.7110  168.1873 C.3     1  UNL1        0.0130
     19 C         139.9475  143.7785  170.3852 C.2     1  UNL1        0.0500
     20 O         139.7973  145.2705  170.4192 O.co2   1  UNL1       -0.5492
     21 O         138.9814  142.9103  171.1354 O.co2   1  UNL1       -0.5492
     22 C         142.6266  141.1899  162.2443 C.ar    1  UNL1        0.0192
     23 C         142.3821  142.3165  161.2847 C.ar    1  UNL1        0.0017
     24 C         142.9829  142.2753  159.9109 C.ar    1  UNL1        0.0046
     25 C         143.8283  141.1075  159.4967 C.ar    1  UNL1        0.0537
     26 C         144.0729  139.9809  160.4563 C.ar    1  UNL1        0.0046
     27 C         143.4720  140.0221  161.8301 C.ar    1  UNL1        0.0017
     28 C         144.4291  141.0663  158.1229 C.2     1  UNL1        0.2505
     29 O         144.2293  139.8609  157.2528 O.2     1  UNL1       -0.2698
     30 N         145.2297  142.2305  157.6192 N.am    1  UNL1       -0.2658
     31 H         145.3608  143.0217  158.1903 H       1  UNL1        0.1566
     32 C         145.8305  142.1893  156.2453 C.ar    1  UNL1        0.1343
     33 C         147.3205  142.1426  156.0796 C.ar    1  UNL1        0.0383
     34 C         147.9214  142.1013  154.7058 C.ar    1  UNL1        0.0757
     35 C         147.0321  142.1067  153.4979 C.ar    1  UNL1        0.0246
     36 C         145.5421  142.1534  153.6636 C.ar    1  UNL1        0.1003
     37 N         144.9412  142.1947  155.0374 N.ar    1  UNL1       -0.2290
     38 C         149.4115  142.0546  154.5400 C.3     1  UNL1        0.4187
     39 F         150.9015  142.0080  154.3742 F       1  UNL1       -0.1659
     40 F         149.5020  141.0387  155.6398 F       1  UNL1       -0.1659
     41 F         149.3209  143.0706  153.4402 F       1  UNL1       -0.1659
@<TRIPOS>UNITY_ATOM_ATTR
20 1
charge -1
@<TRIPOS>BOND
     1     1     2    1
     2     2     3   ar
     3     3     4   ar
     4     4     5   ar
     5     5     6   ar
     6     6     7   ar
     7    13     7    1
     8    13    14    1
     9    14    15    1
    10    15    16    1
    11    16    17    1
    12    17    19    1
    13    19    20   ar
    14    19    21   ar
    15    17    18    1
    16     7     8   ar
    17     8     9   ar
    18     9    22    1
    19    22    23   ar
    20    23    24   ar
    21    24    25   ar
    22    25    28    1
    23    28    29    2
    24    28    30   am
    25    30    32    1
    26    32    33   ar
    27    33    34   ar
    28    34    38    1
    29    38    39    1
    30    38    40    1
    31    38    41    1
    32    34    35   ar
    33    35    36   ar
    34    36    37   ar
    35    25    26   ar
    36    26    27   ar
    37     9    10   ar
    38    10     2   ar
    39    10     6   ar
    40    18    13    1
    41    27    22   ar
    42    37    32   ar
    43     1    11    1
    44     1    12    1
    45    30    31    1
@<TRIPOS>MOLECULE
*****
 41 45 0 0 0
SMALL
GASTEIGER

@<TRIPOS>ATOM
      1 N         140.7190  144.6180  160.1511 N.pl3   1  UNL1       -0.3414
      2 C         139.9827  144.3003  161.4188 C.ar    1  UNL1        0.1432
      3 N         138.9868  145.2758  161.9723 N.ar    1  UNL1       -0.2265
      4 C         138.2506  144.9581  163.2400 C.ar    1  UNL1        0.1193
      5 C         138.5103  143.6649  163.9541 C.ar    1  UNL1        0.1020
      6 N         139.5062  142.6894  163.4006 N.ar    1  UNL1       -0.2885
      7 C         139.9682  141.3454  163.8806 C.ar    1  UNL1        0.1239
      8 N         140.9900  140.8325  162.9095 N.ar    1  UNL1       -0.2305
      9 C         141.1594  141.8595  161.8294 C.ar    1  UNL1        0.1013
     10 C         140.2425  143.0071  162.1329 C.ar    1  UNL1        0.1141
     11 H         140.5485  145.4668  159.6823 H       1  UNL1        0.1438
     12 H         141.3726  143.9777  159.7878 H       1  UNL1        0.1438
     13 C         139.4921  140.6385  165.1149 C.3     1  UNL1        0.0576
     14 C         138.4289  139.5852  165.0130 C.3     1  UNL1        0.0075
     15 C         137.9527  138.8783  166.2473 C.3     1  UNL1        0.0008
     16 C         138.5396  139.2247  167.5835 C.3     1  UNL1        0.0056
     17 C         139.6027  140.2780  167.6854 C.3     1  UNL1        0.0370
     18 C         140.0789  140.9849  166.4511 C.3     1  UNL1        0.0130
     19 C         140.1896  140.6244  169.0217 C.2     1  UNL1        0.0500
     20 O         140.8108  141.9718  169.2415 O.co2   1  UNL1       -0.5492
     21 O         140.1554  139.6232  170.1382 O.co2   1  UNL1       -0.5492
     22 C         142.0836  141.7568  160.6524 C.ar    1  UNL1        0.0192
     23 C         141.6030  141.1388  159.3731 C.ar    1  UNL1        0.0017
     24 C         142.5273  141.0362  158.1961 C.ar    1  UNL1        0.0046
     25 C         143.9322  141.5517  158.2985 C.ar    1  UNL1        0.0537
     26 C         144.4128  142.1698  159.5779 C.ar    1  UNL1        0.0046
     27 C         143.4886  142.2724  160.7549 C.ar    1  UNL1        0.0017
     28 C         144.8564  141.4490  157.1215 C.2     1  UNL1        0.2505
     29 O         145.3152  140.1034  156.6434 O.2     1  UNL1       -0.2698
     30 N         145.3217  142.6921  156.4226 N.am    1  UNL1       -0.2658
     31 H         145.0205  143.5753  156.7364 H       1  UNL1        0.1566
     32 C         146.2459  142.5893  155.2456 C.ar    1  UNL1        0.1343
     33 C         147.7157  142.3825  155.4621 C.ar    1  UNL1        0.0383
     34 C         148.6400  142.2798  154.2851 C.ar    1  UNL1        0.0757
     35 C         148.0944  142.3839  152.8918 C.ar    1  UNL1        0.0246
     36 C         146.6246  142.5908  152.6753 C.ar    1  UNL1        0.1003
     37 N         145.7003  142.6935  153.8523 N.ar    1  UNL1       -0.2290
     38 C         150.1098  142.0729  154.5016 C.3     1  UNL1        0.4187
     39 F         151.5796  141.8661  154.7180 F       1  UNL1       -0.1659
     40 F         150.4092  143.0946  153.4450 F       1  UNL1       -0.1659
     41 F         149.8104  141.0512  155.5582 F       1  UNL1       -0.1659
@<TRIPOS>UNITY_ATOM_ATTR
20 1
charge -1
@<TRIPOS>BOND
     1     1     2    1
     2     2     3   ar
     3     3     4   ar
     4     4     5   ar
     5     5     6   ar
     6     6     7   ar
     7    13     7    1
     8    13    14    1
     9    14    15    1
    10    15    16    1
    11    16    17    1
    12    17    19    1
    13    19    20   ar
    14    19    21   ar
    15    17    18    1
    16     7     8   ar
    17     8     9   ar
    18     9    22    1
    19    22    23   ar
    20    23    24   ar
    21    24    25   ar
    22    25    28    1
    23    28    29    2
    24    28    30   am
    25    30    32    1
    26    32    33   ar
    27    33    34   ar
    28    34    38    1
    29    38    39    1
    30    38    40    1
    31    38    41    1
    32    34    35   ar
    33    35    36   ar
    34    36    37   ar
    35    25    26   ar
    36    26    27   ar
    37     9    10   ar
    38    10     2   ar
    39    10     6   ar
    40    18    13    1
    41    27    22   ar
    42    37    32   ar
    43     1    11    1
    44     1    12    1
    45    30    31    1
@<TRIPOS>MOLECULE
*****
 41 45 0 0 0
SMALL
GASTEIGER

@<TRIPOS>ATOM
      1 N         144.0674  141.7435  159.7064 N.pl3   1  UNL1       -0.3414
      2 C         143.9255  140.8948  158.4777 C.ar    1  UNL1        0.1432
      3 N         144.3007  141.4495  157.1356 N.ar    1  UNL1       -0.2265
      4 C         144.1588  140.6008  155.9069 C.ar    1  UNL1        0.1193
      5 C         143.6417  139.1973  156.0205 C.ar    1  UNL1        0.1020
      6 N         143.2664  138.6426  157.3626 N.ar    1  UNL1       -0.2885
      7 C         142.7326  137.3051  157.7823 C.ar    1  UNL1        0.1239
      8 N         142.5445  137.3272  159.2703 N.ar    1  UNL1       -0.2305
      9 C         142.9622  138.6784  159.7702 C.ar    1  UNL1        0.1013
     10 C         143.4083  139.4913  158.5913 C.ar    1  UNL1        0.1141
     11 H         144.4068  142.6646  159.6318 H       1  UNL1        0.1438
     12 H         143.8211  141.3794  160.5873 H       1  UNL1        0.1438
     13 C         142.4384  136.1486  156.8735 C.3     1  UNL1        0.0576
     14 C         141.4220  136.2938  155.7798 C.3     1  UNL1        0.0075
     15 C         141.1278  135.1373  154.8710 C.3     1  UNL1        0.0008
     16 C         141.8500  133.8356  155.0558 C.3     1  UNL1        0.0056
     17 C         142.8664  133.6905  156.1494 C.3     1  UNL1        0.0370
     18 C         143.1605  134.8470  157.0582 C.3     1  UNL1        0.0130
     19 C         143.5885  132.3888  156.3342 C.2     1  UNL1        0.0500
     20 O         145.0656  132.3088  156.0858 O.co2   1  UNL1       -0.5492
     21 O         142.8336  131.1672  156.7673 O.co2   1  UNL1       -0.5492
     22 C         142.9379  139.1362  161.1985 C.ar    1  UNL1        0.0192
     23 C         141.7443  139.8728  161.7298 C.ar    1  UNL1        0.0017
     24 C         141.7200  140.3307  163.1580 C.ar    1  UNL1        0.0046
     25 C         142.8895  140.0519  164.0549 C.ar    1  UNL1        0.0537
     26 C         144.0832  139.3152  163.5237 C.ar    1  UNL1        0.0046
     27 C         144.1075  138.8574  162.0954 C.ar    1  UNL1        0.0017
     28 C         142.8652  140.5097  165.4832 C.2     1  UNL1        0.2505
     29 O         143.5880  141.7622  165.8815 O.2     1  UNL1       -0.2698
     30 N         142.1183  139.7150  166.5129 N.am    1  UNL1       -0.2658
     31 H         141.6439  138.8929  166.2515 H       1  UNL1        0.1566
     32 C         142.0941  140.1729  167.9412 C.ar    1  UNL1        0.1343
     33 C         141.3079  141.3914  168.3248 C.ar    1  UNL1        0.0383
     34 C         141.2836  141.8494  169.7530 C.ar    1  UNL1        0.0757
     35 C         142.0456  141.0888  170.7974 C.ar    1  UNL1        0.0246
     36 C         142.8318  139.8704  170.4138 C.ar    1  UNL1        0.1003
     37 N         142.8560  139.4124  168.9856 N.ar    1  UNL1       -0.2290
     38 C         140.4975  143.0679  170.1366 C.3     1  UNL1        0.4187
     39 F         139.7113  144.2864  170.5202 F       1  UNL1       -0.1659
     40 F         139.2623  142.2279  170.2733 F       1  UNL1       -0.1659
     41 F         141.7327  143.9079  169.9999 F       1  UNL1       -0.1659
@<TRIPOS>UNITY_ATOM_ATTR
20 1
charge -1
@<TRIPOS>BOND
     1     1     2    1
     2     2     3   ar
     3     3     4   ar
     4     4     5   ar
     5     5     6   ar
     6     6     7   ar
     7    13     7    1
     8    13    14    1
     9    14    15    1
    10    15    16    1
    11    16    17    1
    12    17    19    1
    13    19    20   ar
    14    19    21   ar
    15    17    18    1
    16     7     8   ar
    17     8     9   ar
    18     9    22    1
    19    22    23   ar
    20    23    24   ar
    21    24    25   ar
    22    25    28    1
    23    28    29    2
    24    28    30   am
    25    30    32    1
    26    32    33   ar
    27    33    34   ar
    28    34    38    1
    29    38    39    1
    30    38    40    1
    31    38    41    1
    32    34    35   ar
    33    35    36   ar
    34    36    37   ar
    35    25    26   ar
    36    26    27   ar
    37     9    10   ar
    38    10     2   ar
    39    10     6   ar
    40    18    13    1
    41    27    22   ar
    42    37    32   ar
    43     1    11    1
    44     1    12    1
    45    30    31    1
@<TRIPOS>MOLECULE
*****
 41 45 0 0 0
SMALL
GASTEIGER

@<TRIPOS>ATOM
      1 N         138.0158  140.4342  159.4907 N.pl3   1  UNL1       -0.3414
      2 C         138.0087  141.1946  158.1977 C.ar    1  UNL1        0.1432
      3 N         137.2657  140.6525  157.0128 N.ar    1  UNL1       -0.2265
      4 C         137.2587  141.4130  155.7199 C.ar    1  UNL1        0.1193
      5 C         137.9947  142.7155  155.6119 C.ar    1  UNL1        0.1020
      6 N         138.7377  143.2576  156.7968 N.ar    1  UNL1       -0.2885
      7 C         139.5477  144.5054  156.9886 C.ar    1  UNL1        0.1239
      8 N         140.0553  144.5162  158.4001 N.ar    1  UNL1       -0.2305
      9 C         139.5590  143.2750  159.0806 C.ar    1  UNL1        0.1013
     10 C         138.7447  142.4971  158.0897 C.ar    1  UNL1        0.1141
     11 H         137.5327  139.5793  159.5616 H       1  UNL1        0.1438
     12 H         138.5034  140.7900  160.2684 H       1  UNL1        0.1438
     13 C         139.8049  145.5578  155.9511 C.3     1  UNL1        0.0576
     14 C         140.6068  145.2248  154.7278 C.3     1  UNL1        0.0075
     15 C         140.8640  146.2771  153.6903 C.3     1  UNL1        0.0008
     16 C         140.3193  147.6624  153.8759 C.3     1  UNL1        0.0056
     17 C         139.5174  147.9953  155.0991 C.3     1  UNL1        0.0370
     18 C         139.2603  146.9429  156.1366 C.3     1  UNL1        0.0130
     19 C         138.9728  149.3805  155.2847 C.2     1  UNL1        0.0500
     20 O         139.1671  150.4126  154.2138 O.co2   1  UNL1       -0.5492
     21 O         138.2336  149.7336  156.5412 O.co2   1  UNL1       -0.5492
     22 C         139.8296  142.8809  160.5024 C.ar    1  UNL1        0.0192
     23 C         141.0047  142.0074  160.8279 C.ar    1  UNL1        0.0017
     24 C         141.2752  141.6133  162.2497 C.ar    1  UNL1        0.0046
     25 C         140.3706  142.0926  163.3460 C.ar    1  UNL1        0.0537
     26 C         139.1954  142.9661  163.0205 C.ar    1  UNL1        0.0046
     27 C         138.9249  143.3603  161.5987 C.ar    1  UNL1        0.0017
     28 C         140.6411  141.6985  164.7678 C.2     1  UNL1        0.2505
     29 O         139.4991  141.4027  165.6942 O.2     1  UNL1       -0.2698
     30 N         142.0535  141.6001  165.2630 N.am    1  UNL1       -0.2658
     31 H         142.8031  141.7942  164.6549 H       1  UNL1        0.1566
     32 C         142.3240  141.2060  166.6849 C.ar    1  UNL1        0.1343
     33 C         142.6895  142.2515  167.6964 C.ar    1  UNL1        0.0383
     34 C         142.9599  141.8575  169.1182 C.ar    1  UNL1        0.0757
     35 C         142.8649  140.4178  169.5284 C.ar    1  UNL1        0.0246
     36 C         142.4994  139.3722  168.5169 C.ar    1  UNL1        0.1003
     37 N         142.2289  139.7663  167.0951 N.ar    1  UNL1       -0.2290
     38 C         143.3254  142.9030  170.1297 C.3     1  UNL1        0.4187
     39 F         143.6909  143.9486  171.1412 F       1  UNL1       -0.1659
     40 F         144.7660  142.4973  170.0285 F       1  UNL1       -0.1659
     41 F         141.8849  143.3087  170.2309 F       1  UNL1       -0.1659
@<TRIPOS>UNITY_ATOM_ATTR
20 1
charge -1
@<TRIPOS>BOND
     1     1     2    1
     2     2     3   ar
     3     3     4   ar
     4     4     5   ar
     5     5     6   ar
     6     6     7   ar
     7    13     7    1
     8    13    14    1
     9    14    15    1
    10    15    16    1
    11    16    17    1
    12    17    19    1
    13    19    20   ar
    14    19    21   ar
    15    17    18    1
    16     7     8   ar
    17     8     9   ar
    18     9    22    1
    19    22    23   ar
    20    23    24   ar
    21    24    25   ar
    22    25    28    1
    23    28    29    2
    24    28    30   am
    25    30    32    1
    26    32    33   ar
    27    33    34   ar
    28    34    38    1
    29    38    39    1
    30    38    40    1
    31    38    41    1
    32    34    35   ar
    33    35    36   ar
    34    36    37   ar
    35    25    26   ar
    36    26    27   ar
    37     9    10   ar
    38    10     2   ar
    39    10     6   ar
    40    18    13    1
    41    27    22   ar
    42    37    32   ar
    43     1    11    1
    44     1    12    1
    45    30    31    1
@<TRIPOS>MOLECULE
*****
 41 45 0 0 0
SMALL
GASTEIGER

@<TRIPOS>ATOM
      1 N         141.8899  145.1295  160.2475 N.pl3   1  UNL1       -0.3414
      2 C         141.2197  145.0522  158.9078 C.ar    1  UNL1        0.1432
      3 N         141.6970  145.9175  157.7793 N.ar    1  UNL1       -0.2265
      4 C         141.0268  145.8402  156.4396 C.ar    1  UNL1        0.1193
      5 C         139.8793  144.8975  156.2283 C.ar    1  UNL1        0.1020
      6 N         139.4021  144.0322  157.3567 N.ar    1  UNL1       -0.2885
      7 C         138.3029  143.0154  157.4464 C.ar    1  UNL1        0.1239
      8 N         138.2937  142.4644  158.8415 N.ar    1  UNL1       -0.2305
      9 C         139.3873  143.1406  159.6140 C.ar    1  UNL1        0.1013
     10 C         140.0723  144.1095  158.6965 C.ar    1  UNL1        0.1141
     11 H         142.6431  145.7482  160.3861 H       1  UNL1        0.1438
     12 H         141.5767  144.5615  160.9881 H       1  UNL1        0.1438
     13 C         137.3756  142.6193  156.3358 C.3     1  UNL1        0.0576
     14 C         137.1526  143.5468  155.1781 C.3     1  UNL1        0.0075
     15 C         136.2253  143.1507  154.0676 C.3     1  UNL1        0.0008
     16 C         135.5211  141.8272  154.1147 C.3     1  UNL1        0.0056
     17 C         135.7441  140.8997  155.2723 C.3     1  UNL1        0.0370
     18 C         136.6714  141.2958  156.3829 C.3     1  UNL1        0.0130
     19 C         135.0399  139.5762  155.3194 C.2     1  UNL1        0.0500
     20 O         135.7794  138.3201  154.9656 O.co2   1  UNL1       -0.5492
     21 O         133.5960  139.5087  155.7203 O.co2   1  UNL1       -0.5492
     22 C         139.7348  142.8916  161.0518 C.ar    1  UNL1        0.0192
     23 C         140.7456  141.8422  161.4083 C.ar    1  UNL1        0.0017
     24 C         141.0931  141.5932  162.8460 C.ar    1  UNL1        0.0046
     25 C         140.4299  142.3936  163.9274 C.ar    1  UNL1        0.0537
     26 C         139.4191  143.4430  163.5711 C.ar    1  UNL1        0.0046
     27 C         139.0716  143.6920  162.1333 C.ar    1  UNL1        0.0017
     28 C         140.7775  142.1446  165.3652 C.2     1  UNL1        0.2505
     29 O         139.9700  142.7867  166.4540 O.2     1  UNL1       -0.2698
     30 N         141.9325  141.2535  165.7141 N.am    1  UNL1       -0.2658
     31 H         142.4625  140.8320  164.9995 H       1  UNL1        0.1566
     32 C         142.2800  141.0045  167.1520 C.ar    1  UNL1        0.1343
     33 C         142.7098  142.1439  168.0278 C.ar    1  UNL1        0.0383
     34 C         143.0573  141.8951  169.4656 C.ar    1  UNL1        0.0757
     35 C         142.9750  140.5068  170.0275 C.ar    1  UNL1        0.0246
     36 C         142.5453  139.3674  169.1517 C.ar    1  UNL1        0.1003
     37 N         142.1977  139.6162  167.7139 N.ar    1  UNL1       -0.2290
     38 C         143.4870  143.0345  170.3414 C.3     1  UNL1        0.4187
     39 F         143.9168  144.1739  171.2172 F       1  UNL1       -0.1659
     40 F         142.0833  143.5632  170.3423 F       1  UNL1       -0.1659
     41 F         144.8907  142.5058  170.3405 F       1  UNL1       -0.1659
@<TRIPOS>UNITY_ATOM_ATTR
20 1
charge -1
@<TRIPOS>BOND
     1     1     2    1
     2     2     3   ar
     3     3     4   ar
     4     4     5   ar
     5     5     6   ar
     6     6     7   ar
     7    13     7    1
     8    13    14    1
     9    14    15    1
    10    15    16    1
    11    16    17    1
    12    17    19    1
    13    19    20   ar
    14    19    21   ar
    15    17    18    1
    16     7     8   ar
    17     8     9   ar
    18     9    22    1
    19    22    23   ar
    20    23    24   ar
    21    24    25   ar
    22    25    28    1
    23    28    29    2
    24    28    30   am
    25    30    32    1
    26    32    33   ar
    27    33    34   ar
    28    34    38    1
    29    38    39    1
    30    38    40    1
    31    38    41    1
    32    34    35   ar
    33    35    36   ar
    34    36    37   ar
    35    25    26   ar
    36    26    27   ar
    37     9    10   ar
    38    10     2   ar
    39    10     6   ar
    40    18    13    1
    41    27    22   ar
    42    37    32   ar
    43     1    11    1
    44     1    12    1
    45    30    31    1
@<TRIPOS>MOLECULE
*****
 41 45 0 0 0
SMALL
GASTEIGER

@<TRIPOS>ATOM
      1 N         143.6150  140.6099  161.4858 N.pl3   1  UNL1       -0.3414
      2 C         143.4347  140.2476  162.9302 C.ar    1  UNL1        0.1432
      3 N         144.4143  139.3313  163.6015 N.ar    1  UNL1       -0.2265
      4 C         144.2339  138.9689  165.0459 C.ar    1  UNL1        0.1193
      5 C         143.0740  139.5229  165.8189 C.ar    1  UNL1        0.1020
      6 N         142.0944  140.4392  165.1476 N.ar    1  UNL1       -0.2885
      7 C         140.8638  141.1345  165.6497 C.ar    1  UNL1        0.1239
      8 N         140.2836  141.9266  164.5157 N.ar    1  UNL1       -0.2305
      9 C         141.1556  141.7208  163.3127 C.ar    1  UNL1        0.1013
     10 C         142.2747  140.8015  163.7032 C.ar    1  UNL1        0.1141
     11 H         144.3763  140.2464  160.9785 H       1  UNL1        0.1438
     12 H         142.9720  141.2114  161.0452 H       1  UNL1        0.1438
     13 C         140.3106  141.0522  167.0415 C.3     1  UNL1        0.0576
     14 C         139.5388  139.8398  167.4714 C.3     1  UNL1        0.0075
     15 C         138.9856  139.7575  168.8632 C.3     1  UNL1        0.0008
     16 C         139.2040  140.8875  169.8252 C.3     1  UNL1        0.0056
     17 C         139.9757  142.0998  169.3953 C.3     1  UNL1        0.0370
     18 C         140.5289  142.1821  168.0035 C.3     1  UNL1        0.0130
     19 C         140.1941  143.2298  170.3573 C.2     1  UNL1        0.0500
     20 O         141.4804  144.0009  170.3290 O.co2   1  UNL1       -0.5492
     21 O         139.1262  143.5887  171.3476 O.co2   1  UNL1       -0.5492
     22 C         140.9454  142.3278  161.9572 C.ar    1  UNL1        0.0192
     23 C         141.5553  143.6580  161.6283 C.ar    1  UNL1        0.0017
     24 C         141.3451  144.2649  160.2727 C.ar    1  UNL1        0.0046
     25 C         140.5250  143.5415  159.2461 C.ar    1  UNL1        0.0537
     26 C         139.9150  142.2112  159.5750 C.ar    1  UNL1        0.0046
     27 C         140.1252  141.6043  160.9305 C.ar    1  UNL1        0.0017
     28 C         140.3148  144.1485  157.8905 C.2     1  UNL1        0.2505
     29 O         139.0944  143.7968  157.0925 O.2     1  UNL1       -0.2698
     30 N         141.3250  145.1070  157.3331 N.am    1  UNL1       -0.2658
     31 H         142.1260  145.3378  157.8570 H       1  UNL1        0.1566
     32 C         141.1147  145.7139  155.9776 C.ar    1  UNL1        0.1343
     33 C         140.4483  147.0517  155.8500 C.ar    1  UNL1        0.0383
     34 C         140.2380  147.6586  154.4945 C.ar    1  UNL1        0.0757
     35 C         140.6941  146.9278  153.2666 C.ar    1  UNL1        0.0246
     36 C         141.3605  145.5900  153.3942 C.ar    1  UNL1        0.1003
     37 N         141.5708  144.9830  154.7497 N.ar    1  UNL1       -0.2290
     38 C         139.5716  148.9964  154.3669 C.3     1  UNL1        0.4187
     39 F         138.9052  150.3341  154.2394 F       1  UNL1       -0.1659
     40 F         140.6137  149.4209  153.3751 F       1  UNL1       -0.1659
     41 F         138.5295  148.5718  155.3587 F       1  UNL1       -0.1659
@<TRIPOS>UNITY_ATOM_ATTR
20 1
charge -1
@<TRIPOS>BOND
     1     1     2    1
     2     2     3   ar
     3     3     4   ar
     4     4     5   ar
     5     5     6   ar
     6     6     7   ar
     7    13     7    1
     8    13    14    1
     9    14    15    1
    10    15    16    1
    11    16    17    1
    12    17    19    1
    13    19    20   ar
    14    19    21   ar
    15    17    18    1
    16     7     8   ar
    17     8     9   ar
    18     9    22    1
    19    22    23   ar
    20    23    24   ar
    21    24    25   ar
    22    25    28    1
    23    28    29    2
    24    28    30   am
    25    30    32    1
    26    32    33   ar
    27    33    34   ar
    28    34    38    1
    29    38    39    1
    30    38    40    1
    31    38    41    1
    32    34    35   ar
    33    35    36   ar
    34    36    37   ar
    35    25    26   ar
    36    26    27   ar
    37     9    10   ar
    38    10     2   ar
    39    10     6   ar
    40    18    13    1
    41    27    22   ar
    42    37    32   ar
    43     1    11    1
    44     1    12    1
    45    30    31    1
