@<TRIPOS>MOLECULE
*****
 36 41 0 0 0
SMALL
GASTEIGER

@<TRIPOS>ATOM
      1 C         141.0595  140.5862  159.6667 C.ar    1  UNL1       -0.0088
      2 C         140.9434  141.3938  160.9254 C.ar    1  UNL1       -0.0002
      3 C         140.9428  140.7075  162.2593 C.ar    1  UNL1        0.0351
      4 C         141.0582  139.2139  162.3344 C.ar    1  UNL1       -0.0133
      5 C         141.1743  138.4064  161.0756 C.ar    1  UNL1        0.0104
      6 C         141.1750  139.0925  159.7418 C.ar    1  UNL1        0.0435
      7 C         141.0576  138.5278  163.6682 C.3     1  UNL1        0.0545
      8 C         141.1027  137.4286  164.6880 C.3     1  UNL1        0.0103
      9 C         141.1894  137.3385  162.7637 C.3     1  UNL1        0.0103
     10 C         140.9415  139.3353  164.9270 C.2     1  UNL1        0.0648
     11 N         140.9131  138.9404  166.3738 N.2     1  UNL1       -0.2496
     12 C         140.7801  140.1900  167.1929 C.2     1  UNL1        0.0781
     13 C         140.7010  140.4158  168.6736 C.2     1  UNL1        0.0287
     14 C         140.5681  141.8088  169.2138 C.2     1  UNL1        0.0660
     15 C         140.5143  142.9760  168.2732 C.2     1  UNL1       -0.0110
     16 C         140.5934  142.7502  166.7924 C.3     1  UNL1        0.0547
     17 C         140.7263  141.3572  166.2523 C.2     1  UNL1        0.0041
     18 C         140.8260  140.8289  164.8519 C.2     1  UNL1        0.0506
     19 C         140.8267  141.5151  163.5180 C.2     1  UNL1        0.1961
     20 O         140.7112  143.0088  163.4429 O.2     1  UNL1       -0.2866
     21 N         141.2911  138.2850  158.4830 N.pl3   1  UNL1       -0.3077
     22 C         142.6265  137.7543  158.0529 C.3     1  UNL1        0.0922
     23 C         142.7426  136.9468  156.7942 C.3     1  UNL1        0.0374
     24 C         141.5233  136.6700  155.9656 C.3     1  UNL1        0.0611
     25 C         140.1879  137.2007  156.3957 C.3     1  UNL1        0.0374
     26 C         140.0718  138.0082  157.6544 C.3     1  UNL1        0.0922
     27 N         141.6394  135.8625  154.7068 N.3     1  UNL1       -0.2696
     28 C         142.0178  134.4127  154.7780 C.3     1  UNL1        0.1046
     29 C         142.1339  133.6052  153.5192 C.3     1  UNL1        0.1595
     30 O         141.8716  134.2474  152.1893 O.3     1  UNL1       -0.3508
     31 C         141.4932  135.6972  152.1181 C.3     1  UNL1        0.1595
     32 C         141.3771  136.5047  153.3768 C.3     1  UNL1        0.1046
     33 C         139.7660  141.7129  157.7153 C.3     1  UNL1        0.0051
     34 C         141.0601  141.2724  158.3328 C.3     1  UNL1        0.0276
     35 C         140.4890  142.0346  170.6946 C.1     1  UNL1        0.1001
     36 N         140.4099  142.2605  172.1754 N.1     1  UNL1       -0.1908
@<TRIPOS>BOND
     1    33    34    1
     2    34     1    1
     3     1     2   ar
     4     2     3   ar
     5     3     4   ar
     6     4     5   ar
     7     5     6   ar
     8     6    21    1
     9    21    22    1
    10    22    23    1
    11    23    24    1
    12    24    27    1
    13    27    28    1
    14    28    29    1
    15    29    30    1
    16    30    31    1
    17    31    32    1
    18    24    25    1
    19    25    26    1
    20     4     7    1
    21     7     8    1
    22     7     9    1
    23     7    10    1
    24    10    11    2
    25    11    12    1
    26    12    13    2
    27    13    14    1
    28    14    35    1
    29    35    36    3
    30    14    15    2
    31    15    16    1
    32    16    17    1
    33    17    18    2
    34    18    19    1
    35    19    20    2
    36     6     1   ar
    37    26    21    1
    38    18    10    1
    39    19     3    1
    40    32    27    1
    41    17    12    1
@<TRIPOS>MOLECULE
*****
 36 41 0 0 0
SMALL
GASTEIGER

@<TRIPOS>ATOM
      1 C         142.6633  139.8870  159.9804 C.ar    1  UNL1       -0.0088
      2 C         142.8546  140.6028  161.2846 C.ar    1  UNL1       -0.0002
      3 C         142.0579  140.1942  162.4882 C.ar    1  UNL1        0.0351
      4 C         141.0700  139.0700  162.3874 C.ar    1  UNL1       -0.0133
      5 C         140.8787  138.3543  161.0831 C.ar    1  UNL1        0.0104
      6 C         141.6753  138.7628  159.8796 C.ar    1  UNL1        0.0435
      7 C         140.2733  138.6615  163.5909 C.3     1  UNL1        0.0545
      8 C         139.2918  137.9144  164.4445 C.3     1  UNL1        0.0103
      9 C         139.7412  137.6864  162.5831 C.3     1  UNL1        0.0103
     10 C         140.4646  139.3772  164.8952 C.2     1  UNL1        0.0648
     11 N         139.8269  139.1986  166.2411 N.2     1  UNL1       -0.2496
     12 C         140.4208  140.2123  167.1737 C.2     1  UNL1        0.0781
     13 C         140.1764  140.5062  168.6242 C.2     1  UNL1        0.0287
     14 C         140.9368  141.6053  169.3051 C.2     1  UNL1        0.0660
     15 C         141.9415  142.4105  168.5356 C.2     1  UNL1       -0.0110
     16 C         142.1858  142.1167  167.0851 C.3     1  UNL1        0.0547
     17 C         141.4255  141.0175  166.4042 C.2     1  UNL1        0.0041
     18 C         141.4525  140.5014  164.9960 C.2     1  UNL1        0.0506
     19 C         142.2492  140.9099  163.7925 C.2     1  UNL1        0.1961
     20 O         143.2372  142.0342  163.8932 O.2     1  UNL1       -0.2866
     21 N         141.4840  138.0471  158.5752 N.pl3   1  UNL1       -0.3077
     22 C         140.2039  138.2105  157.8108 C.3     1  UNL1        0.0922
     23 C         140.0126  137.4948  156.5066 C.3     1  UNL1        0.0374
     24 C         141.1015  136.6157  155.9667 C.3     1  UNL1        0.0611
     25 C         142.3817  136.4524  156.7311 C.3     1  UNL1        0.0374
     26 C         142.5729  137.1681  158.0355 C.3     1  UNL1        0.0922
     27 N         140.9102  135.9000  154.6624 N.3     1  UNL1       -0.2696
     28 C         140.0256  136.4913  153.6051 C.3     1  UNL1        0.1046
     29 C         139.8343  135.7756  152.3008 C.3     1  UNL1        0.1595
     30 O         140.5276  134.4686  152.0538 O.3     1  UNL1       -0.3508
     31 C         141.4122  133.8773  153.1110 C.3     1  UNL1        0.1595
     32 C         141.6035  134.5930  154.4154 C.3     1  UNL1        0.1046
     33 C         142.9768  141.4140  157.9018 C.3     1  UNL1        0.0051
     34 C         143.4600  140.2955  158.7768 C.3     1  UNL1        0.0276
     35 C         140.6925  141.8993  170.7556 C.1     1  UNL1        0.1001
     36 N         140.4482  142.1931  172.2061 N.1     1  UNL1       -0.1908
@<TRIPOS>BOND
     1    33    34    1
     2    34     1    1
     3     1     2   ar
     4     2     3   ar
     5     3     4   ar
     6     4     5   ar
     7     5     6   ar
     8     6    21    1
     9    21    22    1
    10    22    23    1
    11    23    24    1
    12    24    27    1
    13    27    28    1
    14    28    29    1
    15    29    30    1
    16    30    31    1
    17    31    32    1
    18    24    25    1
    19    25    26    1
    20     4     7    1
    21     7     8    1
    22     7     9    1
    23     7    10    1
    24    10    11    2
    25    11    12    1
    26    12    13    2
    27    13    14    1
    28    14    35    1
    29    35    36    3
    30    14    15    2
    31    15    16    1
    32    16    17    1
    33    17    18    2
    34    18    19    1
    35    19    20    2
    36     6     1   ar
    37    26    21    1
    38    18    10    1
    39    19     3    1
    40    32    27    1
    41    17    12    1
@<TRIPOS>MOLECULE
*****
 36 41 0 0 0
SMALL
GASTEIGER

@<TRIPOS>ATOM
      1 C         142.1781  140.4107  159.8139 C.ar    1  UNL1       -0.0088
      2 C         141.4243  140.3202  161.1076 C.ar    1  UNL1       -0.0002
      3 C         142.0261  140.8714  162.3663 C.ar    1  UNL1        0.0351
      4 C         143.3815  141.5130  162.3312 C.ar    1  UNL1       -0.0133
      5 C         144.1352  141.6034  161.0375 C.ar    1  UNL1        0.0104
      6 C         143.5335  141.0522  159.7788 C.ar    1  UNL1        0.0435
      7 C         143.9832  142.0641  163.5898 C.3     1  UNL1        0.0545
      8 C         144.9650  142.7266  164.5103 C.3     1  UNL1        0.0103
      9 C         145.0779  142.3846  162.6158 C.3     1  UNL1        0.0103
     10 C         143.2294  141.9737  164.8836 C.2     1  UNL1        0.0648
     11 N         143.5647  142.4249  166.2742 N.2     1  UNL1       -0.2496
     12 C         142.4166  142.0622  167.1688 C.2     1  UNL1        0.0781
     13 C         142.1876  142.2597  168.6380 C.2     1  UNL1        0.0287
     14 C         140.9137  141.7818  169.2694 C.2     1  UNL1        0.0660
     15 C         139.8688  141.1064  168.4316 C.2     1  UNL1       -0.0110
     16 C         140.0977  140.9089  166.9624 C.3     1  UNL1        0.0547
     17 C         141.3717  141.3868  166.3310 C.2     1  UNL1        0.0041
     18 C         141.8740  141.3321  164.9187 C.2     1  UNL1        0.0506
     19 C         141.2723  140.7810  163.6600 C.2     1  UNL1        0.1961
     20 O         139.9169  140.1393  163.6951 O.2     1  UNL1       -0.2866
     21 N         144.2873  141.1427  158.4851 N.pl3   1  UNL1       -0.3077
     22 C         144.1243  140.0734  157.4458 C.3     1  UNL1        0.0922
     23 C         144.8780  140.1638  156.1522 C.3     1  UNL1        0.0374
     24 C         145.7947  141.3235  155.8977 C.3     1  UNL1        0.0611
     25 C         145.9576  142.3928  156.9369 C.3     1  UNL1        0.0374
     26 C         145.2039  142.3024  158.2307 C.3     1  UNL1        0.0922
     27 N         146.5484  141.4139  154.6039 N.3     1  UNL1       -0.2696
     28 C         145.9787  140.8000  153.3595 C.3     1  UNL1        0.1046
     29 C         146.7324  140.8905  152.0658 C.3     1  UNL1        0.1595
     30 O         148.0559  141.5948  152.0165 O.3     1  UNL1       -0.3508
     31 C         148.6256  142.2087  153.2609 C.3     1  UNL1        0.1595
     32 C         147.8718  142.1182  154.5546 C.3     1  UNL1        0.1046
     33 C         140.6426  138.6875  158.6211 C.3     1  UNL1        0.0051
     34 C         141.5764  139.8595  158.5552 C.3     1  UNL1        0.0276
     35 C         140.6847  141.9793  170.7386 C.1     1  UNL1        0.1001
     36 N         140.4558  142.1767  172.2078 N.1     1  UNL1       -0.1908
@<TRIPOS>BOND
     1    33    34    1
     2    34     1    1
     3     1     2   ar
     4     2     3   ar
     5     3     4   ar
     6     4     5   ar
     7     5     6   ar
     8     6    21    1
     9    21    22    1
    10    22    23    1
    11    23    24    1
    12    24    27    1
    13    27    28    1
    14    28    29    1
    15    29    30    1
    16    30    31    1
    17    31    32    1
    18    24    25    1
    19    25    26    1
    20     4     7    1
    21     7     8    1
    22     7     9    1
    23     7    10    1
    24    10    11    2
    25    11    12    1
    26    12    13    2
    27    13    14    1
    28    14    35    1
    29    35    36    3
    30    14    15    2
    31    15    16    1
    32    16    17    1
    33    17    18    2
    34    18    19    1
    35    19    20    2
    36     6     1   ar
    37    26    21    1
    38    18    10    1
    39    19     3    1
    40    32    27    1
    41    17    12    1
@<TRIPOS>MOLECULE
*****
 36 41 0 0 0
SMALL
GASTEIGER

@<TRIPOS>ATOM
      1 C         142.2794  140.8398  158.7205 C.ar    1  UNL1       -0.0088
      2 C         141.2748  140.6077  159.8100 C.ar    1  UNL1       -0.0002
      3 C         141.7040  140.6476  161.2468 C.ar    1  UNL1        0.0351
      4 C         143.1377  140.9197  161.5940 C.ar    1  UNL1       -0.0133
      5 C         144.1422  141.1518  160.5045 C.ar    1  UNL1        0.0104
      6 C         143.7130  141.1119  159.0677 C.ar    1  UNL1        0.0435
      7 C         143.5668  140.9596  163.0307 C.3     1  UNL1        0.0545
      8 C         144.4515  141.0966  164.2343 C.3     1  UNL1        0.0103
      9 C         144.8786  141.2393  162.3592 C.3     1  UNL1        0.0103
     10 C         142.5623  140.7274  164.1203 C.2     1  UNL1        0.0648
     11 N         142.6893  140.7059  165.6147 N.2     1  UNL1       -0.2496
     12 C         141.3342  140.4206  166.1911 C.2     1  UNL1        0.0781
     13 C         140.8540  140.2817  167.6054 C.2     1  UNL1        0.0287
     14 C         139.4092  139.9880  167.8814 C.2     1  UNL1        0.0660
     15 C         138.4446  139.8332  166.7431 C.2     1  UNL1       -0.0110
     16 C         138.9248  139.9720  165.3289 C.3     1  UNL1        0.0547
     17 C         140.3696  140.2657  165.0529 C.2     1  UNL1        0.0041
     18 C         141.1286  140.4553  163.7731 C.2     1  UNL1        0.0506
     19 C         140.6995  140.4154  162.3363 C.2     1  UNL1        0.1961
     20 O         139.2657  140.1433  161.9891 O.2     1  UNL1       -0.2866
     21 N         144.7176  141.3441  157.9782 N.pl3   1  UNL1       -0.3077
     22 C         145.6211  142.5401  158.0336 C.3     1  UNL1        0.0922
     23 C         146.6256  142.7723  156.9441 C.3     1  UNL1        0.0374
     24 C         146.7266  141.8084  155.7992 C.3     1  UNL1        0.0611
     25 C         145.8230  140.6124  155.7439 C.3     1  UNL1        0.0374
     26 C         144.8185  140.3802  156.8334 C.3     1  UNL1        0.0922
     27 N         147.7311  142.0406  154.7097 N.3     1  UNL1       -0.2696
     28 C         149.1834  141.7576  154.9559 C.3     1  UNL1        0.1046
     29 C         150.1879  141.9898  153.8663 C.3     1  UNL1        0.1595
     30 O         149.7401  142.5049  152.5306 O.3     1  UNL1       -0.3508
     31 C         148.2878  142.7879  152.2845 C.3     1  UNL1        0.1595
     32 C         147.2833  142.5557  153.3740 C.3     1  UNL1        0.1046
     33 C         141.4081  142.0585  156.5978 C.3     1  UNL1        0.0051
     34 C         141.8502  140.7999  157.2837 C.3     1  UNL1        0.0276
     35 C         138.9289  139.8492  169.2957 C.1     1  UNL1        0.1001
     36 N         138.4487  139.7103  170.7099 N.1     1  UNL1       -0.1908
@<TRIPOS>BOND
     1    33    34    1
     2    34     1    1
     3     1     2   ar
     4     2     3   ar
     5     3     4   ar
     6     4     5   ar
     7     5     6   ar
     8     6    21    1
     9    21    22    1
    10    22    23    1
    11    23    24    1
    12    24    27    1
    13    27    28    1
    14    28    29    1
    15    29    30    1
    16    30    31    1
    17    31    32    1
    18    24    25    1
    19    25    26    1
    20     4     7    1
    21     7     8    1
    22     7     9    1
    23     7    10    1
    24    10    11    2
    25    11    12    1
    26    12    13    2
    27    13    14    1
    28    14    35    1
    29    35    36    3
    30    14    15    2
    31    15    16    1
    32    16    17    1
    33    17    18    2
    34    18    19    1
    35    19    20    2
    36     6     1   ar
    37    26    21    1
    38    18    10    1
    39    19     3    1
    40    32    27    1
    41    17    12    1
@<TRIPOS>MOLECULE
*****
 36 41 0 0 0
SMALL
GASTEIGER

@<TRIPOS>ATOM
      1 C         140.0720  143.5825  163.6151 C.ar    1  UNL1       -0.0088
      2 C         140.2371  142.9943  164.9851 C.ar    1  UNL1       -0.0002
      3 C         141.1499  141.8222  165.1930 C.ar    1  UNL1        0.0351
      4 C         141.8974  141.2384  164.0310 C.ar    1  UNL1       -0.0133
      5 C         141.7323  141.8267  162.6610 C.ar    1  UNL1        0.0104
      6 C         140.8195  142.9987  162.4531 C.ar    1  UNL1        0.0435
      7 C         142.8102  140.0664  164.2389 C.3     1  UNL1        0.0545
      8 C         143.7829  138.9659  163.9344 C.3     1  UNL1        0.0103
      9 C         142.9828  140.2724  162.7632 C.3     1  UNL1        0.0103
     10 C         142.9753  139.4782  165.6089 C.2     1  UNL1        0.0648
     11 N         143.7982  138.3312  166.1162 N.2     1  UNL1       -0.2496
     12 C         143.5592  138.2062  167.5918 C.2     1  UNL1        0.0781
     13 C         144.0999  137.2565  168.6192 C.2     1  UNL1        0.0287
     14 C         143.6701  137.3765  170.0512 C.2     1  UNL1        0.0660
     15 C         142.6995  138.4462  170.4558 C.2     1  UNL1       -0.0110
     16 C         142.1588  139.3959  169.4284 C.3     1  UNL1        0.0547
     17 C         142.5886  139.2759  167.9964 C.2     1  UNL1        0.0041
     18 C         142.2278  140.0620  166.7709 C.2     1  UNL1        0.0506
     19 C         141.3150  141.2340  166.5630 C.2     1  UNL1        0.1961
     20 O         140.5674  141.8179  167.7250 O.2     1  UNL1       -0.2866
     21 N         140.6544  143.5869  161.0832 N.pl3   1  UNL1       -0.3077
     22 C         141.4633  144.7835  160.6782 C.3     1  UNL1        0.0922
     23 C         141.2981  145.3716  159.3084 C.3     1  UNL1        0.0374
     24 C         140.3241  144.7633  158.3434 C.3     1  UNL1        0.0611
     25 C         139.5152  143.5668  158.7483 C.3     1  UNL1        0.0374
     26 C         139.6804  142.9786  160.1183 C.3     1  UNL1        0.0922
     27 N         140.1589  145.3516  156.9734 N.3     1  UNL1       -0.2696
     28 C         140.5810  144.5690  155.7653 C.3     1  UNL1        0.1046
     29 C         140.4158  145.1573  154.3954 C.3     1  UNL1        0.1595
     30 O         139.8286  146.5280  154.2335 O.3     1  UNL1       -0.3508
     31 C         139.4066  147.3106  155.4416 C.3     1  UNL1        0.1595
     32 C         139.5717  146.7223  156.8115 C.3     1  UNL1        0.1046
     33 C         137.7162  144.5300  163.0647 C.3     1  UNL1        0.0051
     34 C         139.1592  144.7546  163.4072 C.3     1  UNL1        0.0276
     35 C         144.2109  136.4268  171.0787 C.1     1  UNL1        0.1001
     36 N         144.7517  135.4771  172.1061 N.1     1  UNL1       -0.1908
@<TRIPOS>BOND
     1    33    34    1
     2    34     1    1
     3     1     2   ar
     4     2     3   ar
     5     3     4   ar
     6     4     5   ar
     7     5     6   ar
     8     6    21    1
     9    21    22    1
    10    22    23    1
    11    23    24    1
    12    24    27    1
    13    27    28    1
    14    28    29    1
    15    29    30    1
    16    30    31    1
    17    31    32    1
    18    24    25    1
    19    25    26    1
    20     4     7    1
    21     7     8    1
    22     7     9    1
    23     7    10    1
    24    10    11    2
    25    11    12    1
    26    12    13    2
    27    13    14    1
    28    14    35    1
    29    35    36    3
    30    14    15    2
    31    15    16    1
    32    16    17    1
    33    17    18    2
    34    18    19    1
    35    19    20    2
    36     6     1   ar
    37    26    21    1
    38    18    10    1
    39    19     3    1
    40    32    27    1
    41    17    12    1
@<TRIPOS>MOLECULE
*****
 36 41 0 0 0
SMALL
GASTEIGER

@<TRIPOS>ATOM
      1 C         143.0118  142.4284  163.5771 C.ar    1  UNL1       -0.0088
      2 C         142.4285  142.3015  164.9532 C.ar    1  UNL1       -0.0002
      3 C         141.3177  141.3266  165.2100 C.ar    1  UNL1        0.0351
      4 C         140.7903  140.4787  164.0906 C.ar    1  UNL1       -0.0133
      5 C         141.3736  140.6057  162.7145 C.ar    1  UNL1        0.0104
      6 C         142.4844  141.5805  162.4578 C.ar    1  UNL1        0.0435
      7 C         139.6795  139.5039  164.3473 C.3     1  UNL1        0.0545
      8 C         138.6468  138.4455  164.0959 C.3     1  UNL1        0.0103
      9 C         139.9042  139.2633  162.8839 C.3     1  UNL1        0.0103
     10 C         139.0962  139.3769  165.7234 C.2     1  UNL1        0.0648
     11 N         138.0030  138.5099  166.2741 N.2     1  UNL1       -0.2496
     12 C         137.8548  138.8219  167.7338 C.2     1  UNL1        0.0781
     13 C         136.9372  138.2779  168.7883 C.2     1  UNL1        0.0287
     14 C         137.0213  138.7938  170.1943 C.2     1  UNL1        0.0660
     15 C         138.0229  139.8536  170.5458 C.2     1  UNL1       -0.0110
     16 C         138.9404  140.3976  169.4913 C.3     1  UNL1        0.0547
     17 C         138.8564  139.8818  168.0853 C.2     1  UNL1        0.0041
     18 C         139.6236  140.2248  166.8428 C.2     1  UNL1        0.0506
     19 C         140.7344  141.1996  166.5861 C.2     1  UNL1        0.1961
     20 O         141.2618  142.0475  167.7054 O.2     1  UNL1       -0.2866
     21 N         143.0677  141.7075  161.0817 N.pl3   1  UNL1       -0.3077
     22 C         143.7904  140.5476  160.4635 C.3     1  UNL1        0.0922
     23 C         144.3737  140.6745  159.0874 C.3     1  UNL1        0.0374
     24 C         144.2343  141.9614  158.3295 C.3     1  UNL1        0.0611
     25 C         143.5116  143.1214  158.9478 C.3     1  UNL1        0.0374
     26 C         142.9283  142.9944  160.3239 C.3     1  UNL1        0.0922
     27 N         144.8177  142.0884  156.9534 N.3     1  UNL1       -0.2696
     28 C         146.2940  142.2893  156.7803 C.3     1  UNL1        0.1046
     29 C         146.8773  142.4163  155.4042 C.3     1  UNL1        0.1595
     30 O         145.9843  142.3424  154.2012 O.3     1  UNL1       -0.3508
     31 C         144.5080  142.1415  154.3744 C.3     1  UNL1        0.1595
     32 C         143.9247  142.0145  155.7505 C.3     1  UNL1        0.1046
     33 C         143.8678  144.8772  163.4326 C.3     1  UNL1        0.0051
     34 C         144.1226  143.4033  163.3204 C.3     1  UNL1        0.0276
     35 C         136.1036  138.2497  171.2489 C.1     1  UNL1        0.1001
     36 N         135.1861  137.7057  172.3034 N.1     1  UNL1       -0.1908
@<TRIPOS>BOND
     1    33    34    1
     2    34     1    1
     3     1     2   ar
     4     2     3   ar
     5     3     4   ar
     6     4     5   ar
     7     5     6   ar
     8     6    21    1
     9    21    22    1
    10    22    23    1
    11    23    24    1
    12    24    27    1
    13    27    28    1
    14    28    29    1
    15    29    30    1
    16    30    31    1
    17    31    32    1
    18    24    25    1
    19    25    26    1
    20     4     7    1
    21     7     8    1
    22     7     9    1
    23     7    10    1
    24    10    11    2
    25    11    12    1
    26    12    13    2
    27    13    14    1
    28    14    35    1
    29    35    36    3
    30    14    15    2
    31    15    16    1
    32    16    17    1
    33    17    18    2
    34    18    19    1
    35    19    20    2
    36     6     1   ar
    37    26    21    1
    38    18    10    1
    39    19     3    1
    40    32    27    1
    41    17    12    1
@<TRIPOS>MOLECULE
*****
 36 41 0 0 0
SMALL
GASTEIGER

@<TRIPOS>ATOM
      1 C         139.0449  141.4820  153.8513 C.ar    1  UNL1       -0.0088
      2 C         139.1897  139.9890  153.8507 C.ar    1  UNL1       -0.0002
      3 C         140.2084  139.3340  154.7359 C.ar    1  UNL1        0.0351
      4 C         141.0820  140.1720  155.6216 C.ar    1  UNL1       -0.0133
      5 C         140.9371  141.6650  155.6222 C.ar    1  UNL1        0.0104
      6 C         139.9185  142.3200  154.7370 C.ar    1  UNL1        0.0435
      7 C         142.1006  139.5171  156.5068 C.3     1  UNL1        0.0545
      8 C         143.2017  139.3618  157.5136 C.3     1  UNL1        0.0103
      9 C         142.3380  140.9561  156.8570 C.3     1  UNL1        0.0103
     10 C         142.2455  138.0241  156.5062 C.2     1  UNL1        0.0648
     11 N         143.1543  137.1036  157.2656 N.2     1  UNL1       -0.2496
     12 C         142.8424  135.6967  156.8492 C.2     1  UNL1        0.0781
     13 C         143.4191  134.3758  157.2646 C.2     1  UNL1        0.0287
     14 C         142.8942  133.1058  156.6632 C.2     1  UNL1        0.0660
     15 C         141.7926  133.1568  155.6464 C.2     1  UNL1       -0.0110
     16 C         141.2158  134.4777  155.2311 C.3     1  UNL1        0.0547
     17 C         141.7407  135.7476  155.8325 C.2     1  UNL1        0.0041
     18 C         141.3718  137.1860  155.6205 C.2     1  UNL1        0.0506
     19 C         140.3533  137.8410  154.7354 C.2     1  UNL1        0.1961
     20 O         139.4796  137.0030  153.8496 O.2     1  UNL1       -0.2866
     21 N         139.7736  143.8130  154.7376 N.pl3   1  UNL1       -0.3077
     22 C         138.7835  144.4701  155.6530 C.3     1  UNL1        0.0922
     23 C         138.6386  145.9630  155.6536 C.3     1  UNL1        0.0374
     24 C         139.4837  146.7989  154.7387 C.3     1  UNL1        0.0611
     25 C         140.4738  146.1419  153.8233 C.3     1  UNL1        0.0374
     26 C         140.6187  144.6489  153.8228 C.3     1  UNL1        0.0922
     27 N         139.3388  148.2919  154.7393 N.3     1  UNL1       -0.2696
     28 C         139.9302  149.1033  153.6249 C.3     1  UNL1        0.1046
     29 C         139.7853  150.5963  153.6255 C.3     1  UNL1        0.1595
     30 O         139.0490  151.2779  154.7404 O.3     1  UNL1       -0.3508
     31 C         138.4576  150.4666  155.8548 C.3     1  UNL1        0.1595
     32 C         138.6025  148.9736  155.8543 C.3     1  UNL1        0.1046
     33 C         136.6293  142.3579  153.4661 C.3     1  UNL1        0.0051
     34 C         138.0262  142.1370  152.9661 C.3     1  UNL1        0.0276
     35 C         143.4709  131.7849  157.0785 C.1     1  UNL1        0.1001
     36 N         144.0477  130.4639  157.4938 N.1     1  UNL1       -0.1908
@<TRIPOS>BOND
     1    33    34    1
     2    34     1    1
     3     1     2   ar
     4     2     3   ar
     5     3     4   ar
     6     4     5   ar
     7     5     6   ar
     8     6    21    1
     9    21    22    1
    10    22    23    1
    11    23    24    1
    12    24    27    1
    13    27    28    1
    14    28    29    1
    15    29    30    1
    16    30    31    1
    17    31    32    1
    18    24    25    1
    19    25    26    1
    20     4     7    1
    21     7     8    1
    22     7     9    1
    23     7    10    1
    24    10    11    2
    25    11    12    1
    26    12    13    2
    27    13    14    1
    28    14    35    1
    29    35    36    3
    30    14    15    2
    31    15    16    1
    32    16    17    1
    33    17    18    2
    34    18    19    1
    35    19    20    2
    36     6     1   ar
    37    26    21    1
    38    18    10    1
    39    19     3    1
    40    32    27    1
    41    17    12    1
@<TRIPOS>MOLECULE
*****
 36 41 0 0 0
SMALL
GASTEIGER

@<TRIPOS>ATOM
      1 C         141.6713  141.3939  158.3324 C.ar    1  UNL1       -0.0088
      2 C         142.0994  139.9955  158.6660 C.ar    1  UNL1       -0.0002
      3 C         142.2926  138.9889  157.5706 C.ar    1  UNL1        0.0351
      4 C         142.0577  139.3809  156.1419 C.ar    1  UNL1       -0.0133
      5 C         141.6296  140.7793  155.8084 C.ar    1  UNL1        0.0104
      6 C         141.4364  141.7858  156.9037 C.ar    1  UNL1        0.0435
      7 C         142.2509  138.3744  155.0467 C.3     1  UNL1        0.0545
      8 C         142.3016  137.7820  153.6694 C.3     1  UNL1        0.0103
      9 C         141.8404  139.5670  154.2349 C.3     1  UNL1        0.0103
     10 C         142.6790  136.9759  155.3801 C.2     1  UNL1        0.0648
     11 N         142.9475  135.7765  154.5203 N.2     1  UNL1       -0.2496
     12 C         143.3484  134.6433  155.4176 C.2     1  UNL1        0.0781
     13 C         143.7297  133.2215  155.1296 C.2     1  UNL1        0.0287
     14 C         144.0901  132.2988  156.2559 C.2     1  UNL1        0.0660
     15 C         144.0693  132.7978  157.6702 C.2     1  UNL1       -0.0110
     16 C         143.6880  134.2196  157.9583 C.3     1  UNL1        0.0547
     17 C         143.3276  135.1424  156.8320 C.2     1  UNL1        0.0041
     18 C         142.9139  136.5840  156.8088 C.2     1  UNL1        0.0506
     19 C         142.7206  137.5905  157.9041 C.2     1  UNL1        0.1961
     20 O         142.9555  137.1986  159.3329 O.2     1  UNL1       -0.2866
     21 N         141.0083  143.1842  156.5702 N.pl3   1  UNL1       -0.3077
     22 C         142.0348  144.2683  156.4248 C.3     1  UNL1        0.0922
     23 C         141.6068  145.6666  156.0914 C.3     1  UNL1        0.0374
     24 C         140.1522  145.9810  155.9034 C.3     1  UNL1        0.0611
     25 C         139.1257  144.8970  156.0488 C.3     1  UNL1        0.0374
     26 C         139.5538  143.4985  156.3823 C.3     1  UNL1        0.0922
     27 N         139.7241  147.3794  155.5699 N.3     1  UNL1       -0.2696
     28 C         138.8562  148.1456  156.5236 C.3     1  UNL1        0.1046
     29 C         138.4281  149.5441  156.1902 C.3     1  UNL1        0.1595
     30 O         138.8679  150.1763  154.9030 O.3     1  UNL1       -0.3508
     31 C         139.7359  149.4101  153.9493 C.3     1  UNL1        0.1595
     32 C         140.1639  148.0116  154.2827 C.3     1  UNL1        0.1046
     33 C         142.6458  143.1982  159.9278 C.3     1  UNL1        0.0051
     34 C         141.4781  142.4004  159.4277 C.3     1  UNL1        0.0276
     35 C         144.4714  130.8769  155.9678 C.1     1  UNL1        0.1001
     36 N         144.8527  129.4551  155.6797 N.1     1  UNL1       -0.1908
@<TRIPOS>BOND
     1    33    34    1
     2    34     1    1
     3     1     2   ar
     4     2     3   ar
     5     3     4   ar
     6     4     5   ar
     7     5     6   ar
     8     6    21    1
     9    21    22    1
    10    22    23    1
    11    23    24    1
    12    24    27    1
    13    27    28    1
    14    28    29    1
    15    29    30    1
    16    30    31    1
    17    31    32    1
    18    24    25    1
    19    25    26    1
    20     4     7    1
    21     7     8    1
    22     7     9    1
    23     7    10    1
    24    10    11    2
    25    11    12    1
    26    12    13    2
    27    13    14    1
    28    14    35    1
    29    35    36    3
    30    14    15    2
    31    15    16    1
    32    16    17    1
    33    17    18    2
    34    18    19    1
    35    19    20    2
    36     6     1   ar
    37    26    21    1
    38    18    10    1
    39    19     3    1
    40    32    27    1
    41    17    12    1
@<TRIPOS>MOLECULE
*****
 36 41 0 0 0
SMALL
GASTEIGER

@<TRIPOS>ATOM
      1 C         142.4012  138.0395  157.6240 C.ar    1  UNL1       -0.0088
      2 C         142.9366  136.6419  157.7241 C.ar    1  UNL1       -0.0002
      3 C         142.8357  135.7143  156.5495 C.ar    1  UNL1        0.0351
      4 C         142.1995  136.1843  155.2750 C.ar    1  UNL1       -0.0133
      5 C         141.6641  137.5820  155.1751 C.ar    1  UNL1        0.0104
      6 C         141.7650  138.5096  156.3495 C.ar    1  UNL1        0.0435
      7 C         142.0986  135.2568  154.1006 C.3     1  UNL1        0.0545
      8 C         141.7724  134.7539  152.7255 C.3     1  UNL1        0.0103
      9 C         141.4500  136.4797  153.5230 C.3     1  UNL1        0.0103
     10 C         142.6339  133.8591  154.2006 C.2     1  UNL1        0.0648
     11 N         142.6758  132.7276  153.2168 N.2     1  UNL1       -0.2496
     12 C         143.3380  131.5582  153.8832 C.2     1  UNL1        0.0781
     13 C         143.6539  130.1739  153.3995 C.2     1  UNL1        0.0287
     14 C         144.3371  129.1985  154.3114 C.2     1  UNL1        0.0660
     15 C         144.7044  129.6073  155.7071 C.2     1  UNL1       -0.0110
     16 C         144.3884  130.9915  156.1909 C.3     1  UNL1        0.0547
     17 C         143.7052  131.9670  155.2789 C.2     1  UNL1        0.0041
     18 C         143.2701  133.3890  155.4750 C.2     1  UNL1        0.0506
     19 C         143.3710  134.3166  156.6495 C.2     1  UNL1        0.1961
     20 O         144.0072  133.8465  157.9240 O.2     1  UNL1       -0.2866
     21 N         141.2297  139.9073  156.2495 N.pl3   1  UNL1       -0.3077
     22 C         142.1134  141.0156  155.7589 C.3     1  UNL1        0.0922
     23 C         141.5782  142.4131  155.6589 C.3     1  UNL1        0.0374
     24 C         140.1591  142.7025  156.0495 C.3     1  UNL1        0.0611
     25 C         139.2754  141.5943  156.5402 C.3     1  UNL1        0.0374
     26 C         139.8107  140.1966  156.6402 C.3     1  UNL1        0.0922
     27 N         139.6238  144.1002  155.9495 N.3     1  UNL1       -0.2696
     28 C         140.2786  145.2108  156.7163 C.3     1  UNL1        0.1046
     29 C         139.7433  146.6084  156.6163 C.3     1  UNL1        0.1595
     30 O         138.5532  146.8956  155.7496 O.3     1  UNL1       -0.3508
     31 C         137.8984  145.7850  154.9828 C.3     1  UNL1        0.1595
     32 C         138.4337  144.3873  155.0828 C.3     1  UNL1        0.1046
     33 C         143.6925  139.8684  158.9423 C.3     1  UNL1        0.0051
     34 C         142.5022  138.9671  158.7985 C.3     1  UNL1        0.0276
     35 C         144.6530  127.8142  153.8277 C.1     1  UNL1        0.1001
     36 N         144.9690  126.4300  153.3440 N.1     1  UNL1       -0.1908
@<TRIPOS>BOND
     1    33    34    1
     2    34     1    1
     3     1     2   ar
     4     2     3   ar
     5     3     4   ar
     6     4     5   ar
     7     5     6   ar
     8     6    21    1
     9    21    22    1
    10    22    23    1
    11    23    24    1
    12    24    27    1
    13    27    28    1
    14    28    29    1
    15    29    30    1
    16    30    31    1
    17    31    32    1
    18    24    25    1
    19    25    26    1
    20     4     7    1
    21     7     8    1
    22     7     9    1
    23     7    10    1
    24    10    11    2
    25    11    12    1
    26    12    13    2
    27    13    14    1
    28    14    35    1
    29    35    36    3
    30    14    15    2
    31    15    16    1
    32    16    17    1
    33    17    18    2
    34    18    19    1
    35    19    20    2
    36     6     1   ar
    37    26    21    1
    38    18    10    1
    39    19     3    1
    40    32    27    1
    41    17    12    1
