@<TRIPOS>MOLECULE
*****
 23 25 0 0 0
SMALL
GASTEIGER

@<TRIPOS>ATOM
      1 C         141.8243  141.8867  167.4063 C.3     1  UNL1        0.1884
      2 F         137.9440  144.7219  165.4301 F       1  UNL1       -0.2033
      3 C         139.3211  144.1401  165.3071 C.ar    1  UNL1        0.1504
      4 C         139.8842  143.3043  166.4181 C.ar    1  UNL1        0.0297
      5 C         141.2612  142.7225  166.2951 C.ar    1  UNL1        0.0195
      6 C         142.0752  142.9763  165.0611 C.ar    1  UNL1        0.0002
      7 C         141.5121  143.8120  163.9500 C.ar    1  UNL1        0.0135
      8 C         140.1351  144.3939  164.0730 C.ar    1  UNL1        0.0850
      9 CL        139.5720  145.2297  162.9619 Cl      1  UNL1       -0.0799
     10 C         142.3101  142.5417  168.6652 C.3     1  UNL1        0.0510
     11 C         141.5166  142.4137  169.9316 C.3     1  UNL1        0.0354
     12 C         141.6953  141.6758  171.2253 C.3     1  UNL1        0.0700
     13 N         140.3943  142.2328  171.7227 N.3     1  UNL1       -0.2974
     14 C         140.2157  142.9707  170.4290 C.3     1  UNL1        0.0700
     15 H         140.4853  142.8384  172.5384 H       1  UNL1        0.1232
     16 O         141.9015  140.3960  167.2584 O.3     1  UNL1       -0.4725
     17 C         140.7568  139.6426  166.6485 C.ar    1  UNL1        0.1661
     18 C         140.9614  138.8627  165.3836 C.ar    1  UNL1        0.0392
     19 C         139.8167  138.1092  164.7737 C.ar    1  UNL1        0.0033
     20 C         138.4675  138.1356  165.4286 C.ar    1  UNL1        0.0025
     21 C         138.2629  138.9155  166.6935 C.ar    1  UNL1        0.0328
     22 C         139.4076  139.6690  167.3035 C.ar    1  UNL1        0.1738
     23 F         139.2031  140.4489  168.5683 F       1  UNL1       -0.2010
@<TRIPOS>BOND
     1     2     3    1
     2     3     4   ar
     3     4     5   ar
     4     5     1    1
     5     1    10    1
     6    10    11    1
     7    11    12    1
     8    12    13    1
     9    13    14    1
    10     1    16    1
    11    16    17    1
    12    17    18   ar
    13    18    19   ar
    14    19    20   ar
    15    20    21   ar
    16    21    22   ar
    17    22    23    1
    18     5     6   ar
    19     6     7   ar
    20     7     8   ar
    21     8     9    1
    22     8     3   ar
    23    14    11    1
    24    22    17   ar
    25    13    15    1
@<TRIPOS>MOLECULE
*****
 23 25 0 0 0
SMALL
GASTEIGER

@<TRIPOS>ATOM
      1 C         139.8903  141.5376  165.4134 C.3     1  UNL1        0.1884
      2 F         140.8147  144.1893  169.7854 F       1  UNL1       -0.2033
      3 C         140.5722  142.8862  169.0831 C.ar    1  UNL1        0.1504
      4 C         140.3525  142.8634  167.5994 C.ar    1  UNL1        0.0297
      5 C         140.1100  141.5604  166.8971 C.ar    1  UNL1        0.0195
      6 C         140.0872  140.2801  167.6784 C.ar    1  UNL1        0.0002
      7 C         140.3069  140.3029  169.1620 C.ar    1  UNL1        0.0135
      8 C         140.5494  141.6060  169.8643 C.ar    1  UNL1        0.0850
      9 CL        140.7692  141.6287  171.3480 Cl      1  UNL1       -0.0799
     10 C         138.4975  141.6037  164.8604 C.3     1  UNL1        0.0510
     11 C         138.0992  142.7391  163.9649 C.3     1  UNL1        0.0354
     12 C         137.8780  144.2108  164.1526 C.3     1  UNL1        0.0700
     13 N         137.5358  144.3449  162.6983 N.3     1  UNL1       -0.2974
     14 C         137.7570  142.8732  162.5106 C.3     1  UNL1        0.0700
     15 H         138.1809  144.9335  162.1713 H       1  UNL1        0.1232
     16 O         141.0633  141.4488  164.4828 O.3     1  UNL1       -0.4725
     17 C         141.9875  142.6200  164.3271 C.ar    1  UNL1        0.1661
     18 C         141.6676  143.7016  163.3383 C.ar    1  UNL1        0.0392
     19 C         142.5919  144.8727  163.1827 C.ar    1  UNL1        0.0033
     20 C         143.8359  144.9623  164.0158 C.ar    1  UNL1        0.0025
     21 C         144.1559  143.8806  165.0047 C.ar    1  UNL1        0.0328
     22 C         143.2316  142.7095  165.1603 C.ar    1  UNL1        0.1738
     23 F         143.5515  141.6279  166.1492 F       1  UNL1       -0.2010
@<TRIPOS>BOND
     1     2     3    1
     2     3     4   ar
     3     4     5   ar
     4     5     1    1
     5     1    10    1
     6    10    11    1
     7    11    12    1
     8    12    13    1
     9    13    14    1
    10     1    16    1
    11    16    17    1
    12    17    18   ar
    13    18    19   ar
    14    19    20   ar
    15    20    21   ar
    16    21    22   ar
    17    22    23    1
    18     5     6   ar
    19     6     7   ar
    20     7     8   ar
    21     8     9    1
    22     8     3   ar
    23    14    11    1
    24    22    17   ar
    25    13    15    1
@<TRIPOS>MOLECULE
*****
 23 25 0 0 0
SMALL
GASTEIGER

@<TRIPOS>ATOM
      1 C         140.2215  140.0193  167.6293 C.3     1  UNL1        0.1884
      2 F         138.6510  137.2881  163.4972 F       1  UNL1       -0.2033
      3 C         138.8028  138.6021  164.2046 C.ar    1  UNL1        0.1504
      4 C         139.4362  138.6537  165.5632 C.ar    1  UNL1        0.0297
      5 C         139.5880  139.9677  166.2706 C.ar    1  UNL1        0.0195
      6 C         139.1064  141.2302  165.6192 C.ar    1  UNL1        0.0002
      7 C         138.4730  141.1786  164.2605 C.ar    1  UNL1        0.0135
      8 C         138.3212  139.8645  163.5532 C.ar    1  UNL1        0.0850
      9 CL        137.6878  139.8130  162.1944 Cl      1  UNL1       -0.0799
     10 C         139.3708  140.2364  168.8456 C.3     1  UNL1        0.0510
     11 C         139.9026  141.0323  170.0004 C.3     1  UNL1        0.0354
     12 C         140.7805  140.7338  171.1796 C.3     1  UNL1        0.0700
     13 N         140.6547  142.1579  171.6336 N.3     1  UNL1       -0.2974
     14 C         139.7769  142.4564  170.4545 C.3     1  UNL1        0.0700
     15 H         141.5352  142.6728  171.6382 H       1  UNL1        0.1232
     16 O         141.7055  139.8538  167.7718 O.3     1  UNL1       -0.4725
     17 C         142.6219  140.3419  166.6893 C.ar    1  UNL1        0.1661
     18 C         142.8784  141.8111  166.5297 C.ar    1  UNL1        0.0392
     19 C         143.7948  142.2993  165.4472 C.ar    1  UNL1        0.0033
     20 C         144.4548  141.3182  164.5242 C.ar    1  UNL1        0.0025
     21 C         144.1983  139.8488  164.6838 C.ar    1  UNL1        0.0328
     22 C         143.2819  139.3607  165.7663 C.ar    1  UNL1        0.1738
     23 F         143.0254  137.8915  165.9259 F       1  UNL1       -0.2010
@<TRIPOS>BOND
     1     2     3    1
     2     3     4   ar
     3     4     5   ar
     4     5     1    1
     5     1    10    1
     6    10    11    1
     7    11    12    1
     8    12    13    1
     9    13    14    1
    10     1    16    1
    11    16    17    1
    12    17    18   ar
    13    18    19   ar
    14    19    20   ar
    15    20    21   ar
    16    21    22   ar
    17    22    23    1
    18     5     6   ar
    19     6     7   ar
    20     7     8   ar
    21     8     9    1
    22     8     3   ar
    23    14    11    1
    24    22    17   ar
    25    13    15    1
@<TRIPOS>MOLECULE
*****
 23 25 0 0 0
SMALL
GASTEIGER

@<TRIPOS>ATOM
      1 C         140.9973  142.3842  167.6972 C.3     1  UNL1        0.1884
      2 F         137.8798  139.5785  164.6297 F       1  UNL1       -0.2033
      3 C         138.5005  140.8939  164.9962 C.ar    1  UNL1        0.1504
      4 C         139.4385  140.9814  166.1634 C.ar    1  UNL1        0.0297
      5 C         140.0592  142.2968  166.5299 C.ar    1  UNL1        0.0195
      6 C         139.7419  143.5248  165.7292 C.ar    1  UNL1        0.0002
      7 C         138.8039  143.4374  164.5619 C.ar    1  UNL1        0.0135
      8 C         138.1832  142.1220  164.1955 C.ar    1  UNL1        0.0850
      9 CL        137.2451  142.0346  163.0282 Cl      1  UNL1       -0.0799
     10 C         140.4547  142.5722  169.0829 C.3     1  UNL1        0.0510
     11 C         140.1583  141.3780  169.9407 C.3     1  UNL1        0.0354
     12 C         139.0561  140.3623  170.0005 C.3     1  UNL1        0.0700
     13 N         139.7391  139.6890  171.1539 N.3     1  UNL1       -0.2974
     14 C         140.8413  140.7047  171.0941 C.3     1  UNL1        0.0700
     15 H         140.0415  138.7345  170.9592 H       1  UNL1        0.1232
     16 O         142.4778  142.2836  167.4787 O.3     1  UNL1       -0.4725
     17 C         143.0306  141.2368  166.5575 C.ar    1  UNL1        0.1661
     18 C         143.7298  141.6430  165.2942 C.ar    1  UNL1        0.0392
     19 C         144.2826  140.5962  164.3730 C.ar    1  UNL1        0.0033
     20 C         144.1362  139.1431  164.7152 C.ar    1  UNL1        0.0025
     21 C         143.4370  138.7368  165.9786 C.ar    1  UNL1        0.0328
     22 C         142.8842  139.7837  166.8998 C.ar    1  UNL1        0.1738
     23 F         142.1851  139.3774  168.1631 F       1  UNL1       -0.2010
@<TRIPOS>BOND
     1     2     3    1
     2     3     4   ar
     3     4     5   ar
     4     5     1    1
     5     1    10    1
     6    10    11    1
     7    11    12    1
     8    12    13    1
     9    13    14    1
    10     1    16    1
    11    16    17    1
    12    17    18   ar
    13    18    19   ar
    14    19    20   ar
    15    20    21   ar
    16    21    22   ar
    17    22    23    1
    18     5     6   ar
    19     6     7   ar
    20     7     8   ar
    21     8     9    1
    22     8     3   ar
    23    14    11    1
    24    22    17   ar
    25    13    15    1
@<TRIPOS>MOLECULE
*****
 23 25 0 0 0
SMALL
GASTEIGER

@<TRIPOS>ATOM
      1 C         140.6308  142.1443  167.2038 C.3     1  UNL1        0.1884
      2 F         142.8177  144.1660  162.9458 F       1  UNL1       -0.2033
      3 C         141.6506  144.0620  163.8822 C.ar    1  UNL1        0.1504
      4 C         141.7243  143.1551  165.0748 C.ar    1  UNL1        0.0297
      5 C         140.5571  143.0512  166.0112 C.ar    1  UNL1        0.0195
      6 C         139.3162  143.8540  165.7551 C.ar    1  UNL1        0.0002
      7 C         139.2425  144.7608  164.5626 C.ar    1  UNL1        0.0135
      8 C         140.4097  144.8648  163.6261 C.ar    1  UNL1        0.0850
      9 CL        140.3360  145.7717  162.4336 Cl      1  UNL1       -0.0799
     10 C         141.5746  142.4574  168.3269 C.3     1  UNL1        0.0510
     11 C         141.1103  142.3488  169.7490 C.3     1  UNL1        0.0354
     12 C         141.7083  141.8307  171.0234 C.3     1  UNL1        0.0700
     13 N         140.4536  142.1951  171.7603 N.3     1  UNL1       -0.2974
     14 C         139.8556  142.7132  170.4860 C.3     1  UNL1        0.0700
     15 H         140.5846  142.9074  172.4786 H       1  UNL1        0.1232
     16 O         139.7609  140.9243  167.2733 O.3     1  UNL1       -0.4725
     17 C         140.0570  139.7413  166.4000 C.ar    1  UNL1        0.1661
     18 C         141.4722  139.4315  166.0113 C.ar    1  UNL1        0.0392
     19 C         141.7684  138.2484  165.1380 C.ar    1  UNL1        0.0033
     20 C         140.6493  137.3751  164.6534 C.ar    1  UNL1        0.0025
     21 C         139.2339  137.6848  165.0421 C.ar    1  UNL1        0.0328
     22 C         138.9378  138.8679  165.9154 C.ar    1  UNL1        0.1738
     23 F         137.5226  139.1777  166.3041 F       1  UNL1       -0.2010
@<TRIPOS>BOND
     1     2     3    1
     2     3     4   ar
     3     4     5   ar
     4     5     1    1
     5     1    10    1
     6    10    11    1
     7    11    12    1
     8    12    13    1
     9    13    14    1
    10     1    16    1
    11    16    17    1
    12    17    18   ar
    13    18    19   ar
    14    19    20   ar
    15    20    21   ar
    16    21    22   ar
    17    22    23    1
    18     5     6   ar
    19     6     7   ar
    20     7     8   ar
    21     8     9    1
    22     8     3   ar
    23    14    11    1
    24    22    17   ar
    25    13    15    1
@<TRIPOS>MOLECULE
*****
 23 25 0 0 0
SMALL
GASTEIGER

@<TRIPOS>ATOM
      1 C         140.4350  140.6540  167.3447 C.3     1  UNL1        0.1884
      2 F         139.2034  145.2384  165.2313 F       1  UNL1       -0.2033
      3 C         139.0982  143.7422  165.2408 C.ar    1  UNL1        0.1504
      4 C         139.8192  142.9462  166.2880 C.ar    1  UNL1        0.0297
      5 C         139.7139  141.4500  166.2975 C.ar    1  UNL1        0.0195
      6 C         138.8877  140.7496  165.2598 C.ar    1  UNL1        0.0002
      7 C         138.1667  141.5456  164.2126 C.ar    1  UNL1        0.0135
      8 C         138.2720  143.0418  164.2031 C.ar    1  UNL1        0.0850
      9 CL        137.5509  143.8378  163.1559 Cl      1  UNL1       -0.0799
     10 C         139.7537  140.3289  168.6409 C.3     1  UNL1        0.0510
     11 C         140.0926  141.1018  169.8809 C.3     1  UNL1        0.0354
     12 C         139.8887  142.5158  170.3383 C.3     1  UNL1        0.0700
     13 N         140.5720  142.1950  171.6345 N.3     1  UNL1       -0.2974
     14 C         140.7759  140.7811  171.1771 C.3     1  UNL1        0.0700
     15 H         139.9724  142.2849  172.4548 H       1  UNL1        0.1232
     16 O         141.8372  140.1832  167.0958 O.3     1  UNL1       -0.4725
     17 C         142.7762  141.0217  166.2801 C.ar    1  UNL1        0.1661
     18 C         143.1867  140.5706  164.9097 C.ar    1  UNL1        0.0392
     19 C         144.1257  141.4091  164.0941 C.ar    1  UNL1        0.0033
     20 C         144.6541  142.6987  164.6488 C.ar    1  UNL1        0.0025
     21 C         144.2435  143.1499  166.0192 C.ar    1  UNL1        0.0328
     22 C         143.3045  142.3114  166.8348 C.ar    1  UNL1        0.1738
     23 F         142.8940  142.7625  168.2052 F       1  UNL1       -0.2010
@<TRIPOS>BOND
     1     2     3    1
     2     3     4   ar
     3     4     5   ar
     4     5     1    1
     5     1    10    1
     6    10    11    1
     7    11    12    1
     8    12    13    1
     9    13    14    1
    10     1    16    1
    11    16    17    1
    12    17    18   ar
    13    18    19   ar
    14    19    20   ar
    15    20    21   ar
    16    21    22   ar
    17    22    23    1
    18     5     6   ar
    19     6     7   ar
    20     7     8   ar
    21     8     9    1
    22     8     3   ar
    23    14    11    1
    24    22    17   ar
    25    13    15    1
@<TRIPOS>MOLECULE
*****
 23 25 0 0 0
SMALL
GASTEIGER

@<TRIPOS>ATOM
      1 C         142.3684  141.7527  165.6902 C.3     1  UNL1        0.1884
      2 F         138.3663  145.0640  165.8246 F       1  UNL1       -0.2033
      3 C         139.2160  144.0831  165.0725 C.ar    1  UNL1        0.1504
      4 C         140.3673  143.4084  165.7574 C.ar    1  UNL1        0.0297
      5 C         141.2170  142.4274  165.0052 C.ar    1  UNL1        0.0195
      6 C         140.9154  142.1213  163.5681 C.ar    1  UNL1        0.0002
      7 C         139.7641  142.7961  162.8832 C.ar    1  UNL1        0.0135
      8 C         138.9144  143.7770  163.6354 C.ar    1  UNL1        0.0850
      9 CL        137.7631  144.4518  162.9504 Cl      1  UNL1       -0.0799
     10 C         143.7425  142.3489  165.6103 C.3     1  UNL1        0.0510
     11 C         144.5585  142.1879  164.3621 C.3     1  UNL1        0.0354
     12 C         144.6443  142.9104  163.0503 C.3     1  UNL1        0.0700
     13 N         145.7126  141.9601  162.5968 N.3     1  UNL1       -0.2974
     14 C         145.6268  141.2376  163.9085 C.3     1  UNL1        0.0700
     15 H         146.6156  142.4011  162.4226 H       1  UNL1        0.1232
     16 O         142.1456  140.4817  166.4550 O.3     1  UNL1       -0.4725
     17 C         140.9789  139.6001  166.1211 C.ar    1  UNL1        0.1661
     18 C         139.6634  139.8029  166.8128 C.ar    1  UNL1        0.0392
     19 C         138.4967  138.9214  166.4789 C.ar    1  UNL1        0.0033
     20 C         138.6453  137.8369  165.4533 C.ar    1  UNL1        0.0025
     21 C         139.9608  137.6341  164.7616 C.ar    1  UNL1        0.0328
     22 C         141.1276  138.5157  165.0954 C.ar    1  UNL1        0.1738
     23 F         142.4430  138.3128  164.4037 F       1  UNL1       -0.2010
@<TRIPOS>BOND
     1     2     3    1
     2     3     4   ar
     3     4     5   ar
     4     5     1    1
     5     1    10    1
     6    10    11    1
     7    11    12    1
     8    12    13    1
     9    13    14    1
    10     1    16    1
    11    16    17    1
    12    17    18   ar
    13    18    19   ar
    14    19    20   ar
    15    20    21   ar
    16    21    22   ar
    17    22    23    1
    18     5     6   ar
    19     6     7   ar
    20     7     8   ar
    21     8     9    1
    22     8     3   ar
    23    14    11    1
    24    22    17   ar
    25    13    15    1
@<TRIPOS>MOLECULE
*****
 23 25 0 0 0
SMALL
GASTEIGER

@<TRIPOS>ATOM
      1 C         140.7731  139.5835  165.4260 C.3     1  UNL1        0.1884
      2 F         138.3143  140.4032  169.9296 F       1  UNL1       -0.2033
      3 C         139.5896  140.2513  169.1547 C.ar    1  UNL1        0.1504
      4 C         139.5437  139.9934  167.6778 C.ar    1  UNL1        0.0297
      5 C         140.8191  139.8415  166.9030 C.ar    1  UNL1        0.0195
      6 C         142.1403  139.9476  167.6050 C.ar    1  UNL1        0.0002
      7 C         142.1863  140.2055  169.0819 C.ar    1  UNL1        0.0135
      8 C         140.9109  140.3574  169.8568 C.ar    1  UNL1        0.0850
      9 CL        140.9569  140.6154  171.3338 Cl      1  UNL1       -0.0799
     10 C         140.6196  138.1820  164.9139 C.3     1  UNL1        0.0510
     11 C         140.0972  137.9428  163.5283 C.3     1  UNL1        0.0354
     12 C         140.7218  137.7275  162.1817 C.3     1  UNL1        0.0700
     13 N         139.3583  137.6045  161.5689 N.3     1  UNL1       -0.2974
     14 C         138.7336  137.8197  162.9155 C.3     1  UNL1        0.0700
     15 H         139.1656  136.6892  161.1620 H       1  UNL1        0.1232
     16 O         140.8805  140.7270  164.4612 O.3     1  UNL1       -0.4725
     17 C         139.8849  141.8478  164.5126 C.ar    1  UNL1        0.1661
     18 C         138.5928  141.7383  163.7587 C.ar    1  UNL1        0.0392
     19 C         137.5972  142.8591  163.8101 C.ar    1  UNL1        0.0033
     20 C         137.8937  144.0893  164.6154 C.ar    1  UNL1        0.0025
     21 C         139.1858  144.1988  165.3694 C.ar    1  UNL1        0.0328
     22 C         140.1814  143.0780  165.3180 C.ar    1  UNL1        0.1738
     23 F         141.4735  143.1875  166.0720 F       1  UNL1       -0.2010
@<TRIPOS>BOND
     1     2     3    1
     2     3     4   ar
     3     4     5   ar
     4     5     1    1
     5     1    10    1
     6    10    11    1
     7    11    12    1
     8    12    13    1
     9    13    14    1
    10     1    16    1
    11    16    17    1
    12    17    18   ar
    13    18    19   ar
    14    19    20   ar
    15    20    21   ar
    16    21    22   ar
    17    22    23    1
    18     5     6   ar
    19     6     7   ar
    20     7     8   ar
    21     8     9    1
    22     8     3   ar
    23    14    11    1
    24    22    17   ar
    25    13    15    1
@<TRIPOS>MOLECULE
*****
 23 25 0 0 0
SMALL
GASTEIGER

@<TRIPOS>ATOM
      1 C         139.6551  139.9969  167.7455 C.3     1  UNL1        0.1884
      2 F         144.1495  139.0996  165.2970 F       1  UNL1       -0.2033
      3 C         143.0833  140.0539  165.7470 C.ar    1  UNL1        0.1504
      4 C         141.9023  139.5482  166.5212 C.ar    1  UNL1        0.0297
      5 C         140.8361  140.5026  166.9712 C.ar    1  UNL1        0.0195
      6 C         140.9510  141.9626  166.6469 C.ar    1  UNL1        0.0002
      7 C         142.1319  142.4682  165.8727 C.ar    1  UNL1        0.0135
      8 C         143.1981  141.5139  165.4227 C.ar    1  UNL1        0.0850
      9 CL        144.3792  142.0196  164.6484 Cl      1  UNL1       -0.0799
     10 C         139.6559  140.0647  169.2440 C.3     1  UNL1        0.0510
     11 C         140.9553  140.1021  169.9923 C.3     1  UNL1        0.0354
     12 C         142.1232  139.1720  170.1369 C.3     1  UNL1        0.0700
     13 N         142.7930  140.1551  171.0507 N.3     1  UNL1       -0.2974
     14 C         141.6251  141.0852  170.9061 C.3     1  UNL1        0.0700
     15 H         143.6704  140.5290  170.6890 H       1  UNL1        0.1232
     16 O         138.4733  139.4234  167.0213 O.3     1  UNL1       -0.4725
     17 C         138.5484  139.1719  165.5445 C.ar    1  UNL1        0.1661
     18 C         138.9447  137.8185  165.0333 C.ar    1  UNL1        0.0392
     19 C         139.0198  137.5670  163.5565 C.ar    1  UNL1        0.0033
     20 C         138.6986  138.6689  162.5907 C.ar    1  UNL1        0.0025
     21 C         138.3023  140.0223  163.1019 C.ar    1  UNL1        0.0328
     22 C         138.2272  140.2738  164.5787 C.ar    1  UNL1        0.1738
     23 F         137.8309  141.6272  165.0899 F       1  UNL1       -0.2010
@<TRIPOS>BOND
     1     2     3    1
     2     3     4   ar
     3     4     5   ar
     4     5     1    1
     5     1    10    1
     6    10    11    1
     7    11    12    1
     8    12    13    1
     9    13    14    1
    10     1    16    1
    11    16    17    1
    12    17    18   ar
    13    18    19   ar
    14    19    20   ar
    15    20    21   ar
    16    21    22   ar
    17    22    23    1
    18     5     6   ar
    19     6     7   ar
    20     7     8   ar
    21     8     9    1
    22     8     3   ar
    23    14    11    1
    24    22    17   ar
    25    13    15    1
