@<TRIPOS>MOLECULE
*****
 38 42 0 0 0
SMALL
GASTEIGER

@<TRIPOS>ATOM
      1 C         144.3276  141.3350  161.6090 C.ar    1  UNL1        0.2221
      2 N         145.5725  141.7547  162.3330 N.ar    1  UNL1       -0.2119
      3 C         145.6536  141.6213  163.8249 C.ar    1  UNL1        0.1050
      4 C         144.4899  141.0681  164.5928 C.ar    1  UNL1        0.0596
      5 C         143.2450  140.6484  163.8688 C.ar    1  UNL1        0.1683
      6 N         143.1638  140.7818  162.3770 N.ar    1  UNL1       -0.1944
      7 N         142.0812  140.0953  164.6367 N.ar    1  UNL1       -0.2096
      8 C         141.6699  140.4942  166.0230 C.ar    1  UNL1        0.1175
      9 C         140.4589  139.6915  166.3962 C.ar    1  UNL1        0.0796
     10 C         140.1218  138.7966  165.2405 C.ar    1  UNL1        0.0939
     11 C         138.9822  137.8230  165.1825 C.3     1  UNL1        0.0553
     12 N         141.1245  139.0461  164.1532 N.ar    1  UNL1       -0.1668
     13 N         139.7156  139.7701  167.6967 N.pl3   1  UNL1       -0.3307
     14 H         138.8283  139.3522  167.7825 H       1  UNL1        0.1469
     15 C         140.3240  140.4853  168.8664 C.3     1  UNL1        0.0850
     16 C         140.2054  141.9765  168.9780 C.3     1  UNL1        0.0223
     17 C         140.8139  142.6918  170.1478 C.3     1  UNL1        0.0188
     18 C         141.5409  141.9159  171.2058 C.3     1  UNL1        0.0687
     19 N         141.6595  140.4247  171.0941 N.3     1  UNL1       -0.2961
     20 C         141.0511  139.7094  169.9244 C.3     1  UNL1        0.0883
     21 H         141.2336  140.0317  171.9335 H       1  UNL1        0.1233
     22 N         144.2465  141.4684  160.1172 N.pl3   1  UNL1       -0.2825
     23 H         144.7737  140.8699  159.5401 H       1  UNL1        0.1551
     24 C         140.3155  145.0659  160.2908 C.ar    1  UNL1        0.1554
     25 N         139.7927  145.9489  159.1967 N.ar    1  UNL1       -0.1646
     26 N         140.5825  145.6636  157.9537 N.ar    1  UNL1       -0.2487
     27 C         140.3944  146.3220  156.6191 C.3     1  UNL1        0.1537
     28 C         141.5933  144.6043  158.2796 C.ar    1  UNL1        0.0796
     29 C         142.6427  143.9285  157.4477 C.ar    1  UNL1        0.0201
     30 C         143.5270  142.8832  158.0603 C.ar    1  UNL1        0.0162
     31 C         143.3620  142.5138  159.5047 C.ar    1  UNL1        0.0506
     32 C         142.3127  143.1896  160.3366 C.ar    1  UNL1        0.0179
     33 C         141.4283  144.2349  159.7240 C.ar    1  UNL1        0.0423
     34 C         137.9642  144.3900  163.4157 C.3     1  UNL1        0.1110
     35 N         138.4661  144.4343  162.0028 N.am    1  UNL1       -0.2979
     36 C         139.8136  145.0216  161.7036 C.2     1  UNL1        0.2654
     37 O         140.6591  145.5645  162.8173 O.2     1  UNL1       -0.2684
     38 H         137.9111  144.0779  161.2719 H       1  UNL1        0.1498
@<TRIPOS>BOND
     1    34    35    1
     2    35    36   am
     3    36    37    2
     4    36    24    1
     5    24    25   ar
     6    25    26   ar
     7    26    27    1
     8    26    28   ar
     9    28    29   ar
    10    29    30   ar
    11    30    31   ar
    12    31    22    1
    13    22     1    1
    14     1     2   ar
    15     2     3   ar
    16     3     4   ar
    17     4     5   ar
    18     5     7    1
    19     7     8   ar
    20     8     9   ar
    21     9    13    1
    22    15    13    1
    23    15    16    1
    24    16    17    1
    25    17    18    1
    26    18    19    1
    27    19    20    1
    28     9    10   ar
    29    10    11    1
    30    10    12   ar
    31     5     6   ar
    32    31    32   ar
    33    32    33   ar
    34    33    24   ar
    35    33    28   ar
    36     6     1   ar
    37    12     7   ar
    38    20    15    1
    39    35    38    1
    40    22    23    1
    41    13    14    1
    42    19    21    1
@<TRIPOS>MOLECULE
*****
 38 42 0 0 0
SMALL
GASTEIGER

@<TRIPOS>ATOM
      1 C         142.5832  138.2848  160.5567 C.ar    1  UNL1        0.2221
      2 N         143.0058  137.5639  159.3109 N.ar    1  UNL1       -0.2119
      3 C         142.8262  138.2138  157.9709 C.ar    1  UNL1        0.1050
      4 C         142.2241  139.5844  157.8767 C.ar    1  UNL1        0.0596
      5 C         141.8015  140.3052  159.1224 C.ar    1  UNL1        0.1683
      6 N         141.9811  139.6554  160.4624 N.ar    1  UNL1       -0.1944
      7 N         141.1995  141.6758  159.0282 N.ar    1  UNL1       -0.2096
      8 C         140.7205  142.5095  160.1796 C.ar    1  UNL1        0.1175
      9 C         140.1956  143.8023  159.6290 C.ar    1  UNL1        0.0796
     10 C         140.3502  143.7676  158.1374 C.ar    1  UNL1        0.0939
     11 C         139.9539  144.8561  157.1844 C.3     1  UNL1        0.0553
     12 N         140.9706  142.4534  157.7661 N.ar    1  UNL1       -0.1668
     13 N         139.6177  144.9315  160.4295 N.pl3   1  UNL1       -0.3307
     14 H         139.3221  145.7546  159.9774 H       1  UNL1        0.1469
     15 C         139.4900  144.8067  161.9189 C.3     1  UNL1        0.0850
     16 C         138.2475  144.2176  162.5184 C.3     1  UNL1        0.0223
     17 C         138.1199  144.0927  164.0077 C.3     1  UNL1        0.0188
     18 C         139.2346  144.5569  164.8976 C.3     1  UNL1        0.0687
     19 N         140.4771  145.1460  164.2980 N.3     1  UNL1       -0.2961
     20 C         140.6048  145.2709  162.8087 C.3     1  UNL1        0.0883
     21 H         141.2578  144.5701  164.6132 H       1  UNL1        0.1233
     22 N         142.7627  137.6350  161.8966 N.pl3   1  UNL1       -0.2825
     23 H         143.4409  136.9313  162.0156 H       1  UNL1        0.1551
     24 C         141.4738  140.8972  165.9116 C.ar    1  UNL1        0.1554
     25 N         140.3357  140.7968  166.8836 N.ar    1  UNL1       -0.1646
     26 N         139.5493  139.5636  166.5506 N.ar    1  UNL1       -0.2487
     27 C         138.3257  139.0774  167.2691 C.3     1  UNL1        0.1537
     28 C         140.2014  138.9019  165.3729 C.ar    1  UNL1        0.0796
     29 C         139.8657  137.6554  164.6090 C.ar    1  UNL1        0.0201
     30 C         140.7195  137.2331  163.4503 C.ar    1  UNL1        0.0162
     31 C         141.9089  138.0573  163.0554 C.ar    1  UNL1        0.0506
     32 C         142.2445  139.3039  163.8192 C.ar    1  UNL1        0.0179
     33 C         141.3908  139.7262  164.9780 C.ar    1  UNL1        0.0423
     34 C         143.7727  143.8502  164.5905 C.3     1  UNL1        0.1110
     35 N         142.7339  142.7685  164.6230 N.am    1  UNL1       -0.2979
     36 C         142.5125  141.9788  165.8791 C.2     1  UNL1        0.2654
     37 O         143.3299  142.2709  167.1023 O.2     1  UNL1       -0.2684
     38 H         142.1974  142.5769  163.8201 H       1  UNL1        0.1498
@<TRIPOS>BOND
     1    34    35    1
     2    35    36   am
     3    36    37    2
     4    36    24    1
     5    24    25   ar
     6    25    26   ar
     7    26    27    1
     8    26    28   ar
     9    28    29   ar
    10    29    30   ar
    11    30    31   ar
    12    31    22    1
    13    22     1    1
    14     1     2   ar
    15     2     3   ar
    16     3     4   ar
    17     4     5   ar
    18     5     7    1
    19     7     8   ar
    20     8     9   ar
    21     9    13    1
    22    15    13    1
    23    15    16    1
    24    16    17    1
    25    17    18    1
    26    18    19    1
    27    19    20    1
    28     9    10   ar
    29    10    11    1
    30    10    12   ar
    31     5     6   ar
    32    31    32   ar
    33    32    33   ar
    34    33    24   ar
    35    33    28   ar
    36     6     1   ar
    37    12     7   ar
    38    20    15    1
    39    35    38    1
    40    22    23    1
    41    13    14    1
    42    19    21    1
@<TRIPOS>MOLECULE
*****
 38 42 0 0 0
SMALL
GASTEIGER

@<TRIPOS>ATOM
      1 C         138.6038  141.4554  156.8086 C.ar    1  UNL1        0.2221
      2 N         138.5873  142.3753  155.6239 N.ar    1  UNL1       -0.2119
      3 C         139.0849  143.7838  155.7611 C.ar    1  UNL1        0.1050
      4 C         139.5990  144.2722  157.0828 C.ar    1  UNL1        0.0596
      5 C         139.6154  143.3522  158.2675 C.ar    1  UNL1        0.1683
      6 N         139.1179  141.9439  158.1304 N.ar    1  UNL1       -0.1944
      7 N         140.1295  143.8407  159.5893 N.ar    1  UNL1       -0.2096
      8 C         141.5602  144.1458  159.9207 C.ar    1  UNL1        0.1175
      9 C         141.6181  144.6035  161.3480 C.ar    1  UNL1        0.0796
     10 C         140.2229  144.5812  161.8987 C.ar    1  UNL1        0.0939
     11 C         139.8188  144.9632  163.2918 C.3     1  UNL1        0.0553
     12 N         139.3030  144.1098  160.8118 N.ar    1  UNL1       -0.1668
     13 N         142.8539  145.0117  162.0936 N.pl3   1  UNL1       -0.3307
     14 H         143.0643  145.9661  162.2126 H       1  UNL1        0.1469
     15 C         143.7692  143.9659  162.6580 C.3     1  UNL1        0.0850
     16 C         143.7948  143.7101  164.1359 C.3     1  UNL1        0.0223
     17 C         144.7101  142.6643  164.7003 C.3     1  UNL1        0.0188
     18 C         145.5997  141.8742  163.7868 C.3     1  UNL1        0.0687
     19 N         145.5741  142.1300  162.3089 N.3     1  UNL1       -0.2961
     20 C         144.6588  143.1758  161.7446 C.3     1  UNL1        0.0883
     21 H         145.3244  141.2478  161.8618 H       1  UNL1        0.1233
     22 N         138.1062  140.0470  156.6714 N.pl3   1  UNL1       -0.2825
     23 H         137.1405  139.8600  156.7114 H       1  UNL1        0.1551
     24 C         142.4660  137.2551  157.9447 C.ar    1  UNL1        0.1554
     25 N         143.0338  136.0343  157.2834 N.ar    1  UNL1       -0.1646
     26 N         142.1449  135.6766  156.1294 N.ar    1  UNL1       -0.2487
     27 C         142.3390  134.5219  155.1918 C.3     1  UNL1        0.1537
     28 C         141.0277  136.6763  156.0774 C.ar    1  UNL1        0.0796
     29 C         139.8554  136.8242  155.1535 C.ar    1  UNL1        0.0201
     30 C         138.8816  137.9478  155.3515 C.ar    1  UNL1        0.0162
     31 C         139.0801  138.9234  156.4735 C.ar    1  UNL1        0.0506
     32 C         140.2524  138.7754  157.3974 C.ar    1  UNL1        0.0179
     33 C         141.2262  137.6519  157.1994 C.ar    1  UNL1        0.0423
     34 C         143.5477  138.0071  161.6884 C.3     1  UNL1        0.1110
     35 N         142.9761  137.3061  160.4918 N.am    1  UNL1       -0.2979
     36 C         143.0377  137.9561  159.1413 C.2     1  UNL1        0.2654
     37 O         143.6710  139.3071  158.9875 O.2     1  UNL1       -0.2684
     38 H         142.5604  136.4193  160.5928 H       1  UNL1        0.1498
@<TRIPOS>BOND
     1    34    35    1
     2    35    36   am
     3    36    37    2
     4    36    24    1
     5    24    25   ar
     6    25    26   ar
     7    26    27    1
     8    26    28   ar
     9    28    29   ar
    10    29    30   ar
    11    30    31   ar
    12    31    22    1
    13    22     1    1
    14     1     2   ar
    15     2     3   ar
    16     3     4   ar
    17     4     5   ar
    18     5     7    1
    19     7     8   ar
    20     8     9   ar
    21     9    13    1
    22    15    13    1
    23    15    16    1
    24    16    17    1
    25    17    18    1
    26    18    19    1
    27    19    20    1
    28     9    10   ar
    29    10    11    1
    30    10    12   ar
    31     5     6   ar
    32    31    32   ar
    33    32    33   ar
    34    33    24   ar
    35    33    28   ar
    36     6     1   ar
    37    12     7   ar
    38    20    15    1
    39    35    38    1
    40    22    23    1
    41    13    14    1
    42    19    21    1
@<TRIPOS>MOLECULE
*****
 38 42 0 0 0
SMALL
GASTEIGER

@<TRIPOS>ATOM
      1 C         142.9868  143.4235  159.7162 C.ar    1  UNL1        0.2221
      2 N         144.1040  142.4243  159.7755 N.ar    1  UNL1       -0.2119
      3 C         144.3439  141.6413  161.0323 C.ar    1  UNL1        0.1050
      4 C         143.4668  141.8576  162.2297 C.ar    1  UNL1        0.0596
      5 C         142.3496  142.8568  162.1703 C.ar    1  UNL1        0.1683
      6 N         142.1096  143.6398  160.9136 N.ar    1  UNL1       -0.1944
      7 N         141.4725  143.0731  163.3677 N.ar    1  UNL1       -0.2096
      8 C         141.4534  142.2328  164.6101 C.ar    1  UNL1        0.1175
      9 C         140.4295  142.8080  165.5432 C.ar    1  UNL1        0.0796
     10 C         139.8157  144.0039  164.8774 C.ar    1  UNL1        0.0939
     11 C         138.7453  144.8818  165.4549 C.3     1  UNL1        0.0553
     12 N         140.4603  144.1677  163.5329 N.ar    1  UNL1       -0.1668
     13 N         140.0806  142.2801  166.9032 N.pl3   1  UNL1       -0.3307
     14 H         139.2560  141.7579  167.0319 H       1  UNL1        0.1469
     15 C         140.9882  142.5478  168.0671 C.3     1  UNL1        0.0850
     16 C         142.3839  141.9980  168.0719 C.3     1  UNL1        0.0223
     17 C         143.2914  142.2656  169.2358 C.3     1  UNL1        0.0188
     18 C         142.8034  143.0831  170.3949 C.3     1  UNL1        0.0687
     19 N         141.4077  143.6329  170.3902 N.3     1  UNL1       -0.2961
     20 C         140.5001  143.3652  169.2262 C.3     1  UNL1        0.0883
     21 H         141.4901  144.6462  170.4723 H       1  UNL1        0.1233
     22 N         142.7468  144.2064  158.4594 N.pl3   1  UNL1       -0.2825
     23 H         143.4504  144.7973  158.1057 H       1  UNL1        0.1551
     24 C         138.7206  146.1634  155.5640 C.ar    1  UNL1        0.1554
     25 N         137.4889  145.4676  155.0652 N.ar    1  UNL1       -0.1646
     26 N         137.5449  144.0406  155.5240 N.ar    1  UNL1       -0.2487
     27 C         136.5153  142.9850  155.2488 C.3     1  UNL1        0.1537
     28 C         138.8111  143.8544  156.3062 C.ar    1  UNL1        0.0796
     29 C         139.3964  142.6598  156.9992 C.ar    1  UNL1        0.0201
     30 C         140.7082  142.7771  157.7170 C.ar    1  UNL1        0.0162
     31 C         141.4349  144.0891  157.7417 C.ar    1  UNL1        0.0506
     32 C         140.8497  145.2838  157.0487 C.ar    1  UNL1        0.0179
     33 C         139.5378  145.1664  156.3310 C.ar    1  UNL1        0.0423
     34 C         138.6516  150.1243  155.8020 C.3     1  UNL1        0.1110
     35 N         138.2989  148.6843  156.0301 N.am    1  UNL1       -0.2979
     36 C         139.0733  147.6034  155.3358 C.2     1  UNL1        0.2654
     37 O         140.2002  147.9625  154.4134 O.2     1  UNL1       -0.2684
     38 H         137.5592  148.4487  156.6356 H       1  UNL1        0.1498
@<TRIPOS>BOND
     1    34    35    1
     2    35    36   am
     3    36    37    2
     4    36    24    1
     5    24    25   ar
     6    25    26   ar
     7    26    27    1
     8    26    28   ar
     9    28    29   ar
    10    29    30   ar
    11    30    31   ar
    12    31    22    1
    13    22     1    1
    14     1     2   ar
    15     2     3   ar
    16     3     4   ar
    17     4     5   ar
    18     5     7    1
    19     7     8   ar
    20     8     9   ar
    21     9    13    1
    22    15    13    1
    23    15    16    1
    24    16    17    1
    25    17    18    1
    26    18    19    1
    27    19    20    1
    28     9    10   ar
    29    10    11    1
    30    10    12   ar
    31     5     6   ar
    32    31    32   ar
    33    32    33   ar
    34    33    24   ar
    35    33    28   ar
    36     6     1   ar
    37    12     7   ar
    38    20    15    1
    39    35    38    1
    40    22    23    1
    41    13    14    1
    42    19    21    1
@<TRIPOS>MOLECULE
*****
 38 42 0 0 0
SMALL
GASTEIGER

@<TRIPOS>ATOM
      1 C         138.2121  139.9086  159.0029 C.ar    1  UNL1        0.2221
      2 N         137.2997  140.5262  157.9850 N.ar    1  UNL1       -0.2119
      3 C         137.7293  140.6187  156.5508 C.ar    1  UNL1        0.1050
      4 C         139.0712  140.0935  156.1344 C.ar    1  UNL1        0.0596
      5 C         139.9836  139.4758  157.1523 C.ar    1  UNL1        0.1683
      6 N         139.5541  139.3834  158.5864 N.ar    1  UNL1       -0.1944
      7 N         141.3255  138.9506  156.7359 N.ar    1  UNL1       -0.2096
      8 C         141.8098  137.5403  156.8991 C.ar    1  UNL1        0.1175
      9 C         143.2023  137.4616  156.3473 C.ar    1  UNL1        0.0796
     10 C         143.5788  138.8233  155.8431 C.ar    1  UNL1        0.0939
     11 C         144.8857  139.1988  155.2098 C.3     1  UNL1        0.0553
     12 N         142.4188  139.7435  156.0832 N.ar    1  UNL1       -0.1668
     13 N         144.0667  136.2364  156.3068 N.pl3   1  UNL1       -0.3307
     14 H         145.0466  136.3238  156.3445 H       1  UNL1        0.1469
     15 C         143.4381  134.8779  156.2090 C.3     1  UNL1        0.0850
     16 C         142.8033  134.4361  154.9237 C.3     1  UNL1        0.0223
     17 C         142.1747  133.0777  154.8258 C.3     1  UNL1        0.0188
     18 C         142.1810  132.1611  156.0131 C.3     1  UNL1        0.0687
     19 N         142.8159  132.6029  157.2984 N.3     1  UNL1       -0.2961
     20 C         143.4444  133.9613  157.3963 C.3     1  UNL1        0.0883
     21 H         143.5460  131.9243  157.5147 H       1  UNL1        0.1233
     22 N         137.7827  139.8161  160.4371 N.pl3   1  UNL1       -0.2825
     23 H         137.3320  139.0044  160.7646 H       1  UNL1        0.1551
     24 C         139.9438  144.5201  161.7120 C.ar    1  UNL1        0.1554
     25 N         139.8385  145.2931  162.9932 N.ar    1  UNL1       -0.1646
     26 N         138.9795  144.5074  163.9392 N.ar    1  UNL1       -0.2487
     27 C         138.6107  144.9095  165.3364 C.3     1  UNL1        0.1537
     28 C         138.5540  143.2489  163.2426 C.ar    1  UNL1        0.0796
     29 C         137.7009  142.0968  163.6839 C.ar    1  UNL1        0.0201
     30 C         137.4438  140.9525  162.7487 C.ar    1  UNL1        0.0162
     31 C         138.0398  140.9604  161.3723 C.ar    1  UNL1        0.0506
     32 C         138.8929  142.1125  160.9310 C.ar    1  UNL1        0.0179
     33 C         139.1500  143.2568  161.8662 C.ar    1  UNL1        0.0423
     34 C         140.7429  145.8832  158.0714 C.3     1  UNL1        0.1110
     35 N         139.9780  145.4660  159.2924 N.am    1  UNL1       -0.2979
     36 C         140.7088  144.9373  160.4910 C.2     1  UNL1        0.2654
     37 O         142.2044  144.8258  160.4685 O.2     1  UNL1       -0.2684
     38 H         138.9963  145.5392  159.3072 H       1  UNL1        0.1498
@<TRIPOS>BOND
     1    34    35    1
     2    35    36   am
     3    36    37    2
     4    36    24    1
     5    24    25   ar
     6    25    26   ar
     7    26    27    1
     8    26    28   ar
     9    28    29   ar
    10    29    30   ar
    11    30    31   ar
    12    31    22    1
    13    22     1    1
    14     1     2   ar
    15     2     3   ar
    16     3     4   ar
    17     4     5   ar
    18     5     7    1
    19     7     8   ar
    20     8     9   ar
    21     9    13    1
    22    15    13    1
    23    15    16    1
    24    16    17    1
    25    17    18    1
    26    18    19    1
    27    19    20    1
    28     9    10   ar
    29    10    11    1
    30    10    12   ar
    31     5     6   ar
    32    31    32   ar
    33    32    33   ar
    34    33    24   ar
    35    33    28   ar
    36     6     1   ar
    37    12     7   ar
    38    20    15    1
    39    35    38    1
    40    22    23    1
    41    13    14    1
    42    19    21    1
@<TRIPOS>MOLECULE
*****
 38 42 0 0 0
SMALL
GASTEIGER

@<TRIPOS>ATOM
      1 C         144.1362  140.0756  162.0633 C.ar    1  UNL1        0.2221
      2 N         144.4506  141.5315  161.8860 N.ar    1  UNL1       -0.2119
      3 C         144.3926  142.1505  160.5209 C.ar    1  UNL1        0.1050
      4 C         144.0203  141.3136  159.3331 C.ar    1  UNL1        0.0596
      5 C         143.7059  139.8576  159.5104 C.ar    1  UNL1        0.1683
      6 N         143.7639  139.2387  160.8754 N.ar    1  UNL1       -0.1944
      7 N         143.3336  139.0207  158.3226 N.ar    1  UNL1       -0.2096
      8 C         142.4699  137.7945  158.3439 C.ar    1  UNL1        0.1175
      9 C         142.3621  137.2790  156.9394 C.ar    1  UNL1        0.0796
     10 C         143.1593  138.1866  156.0501 C.ar    1  UNL1        0.0939
     11 C         143.3266  138.0429  154.5664 C.3     1  UNL1        0.0553
     12 N         143.7597  139.2630  156.9049 N.ar    1  UNL1       -0.1668
     13 N         141.5924  136.0684  156.5012 N.pl3   1  UNL1       -0.3307
     14 H         140.6111  136.1073  156.4324 H       1  UNL1        0.1469
     15 C         142.3178  134.7985  156.1677 C.3     1  UNL1        0.0850
     16 C         141.6197  133.7155  155.3997 C.3     1  UNL1        0.0223
     17 C         142.3451  132.4456  155.0662 C.3     1  UNL1        0.0188
     18 C         143.7686  132.2587  155.5007 C.3     1  UNL1        0.0687
     19 N         144.4667  133.3418  156.2687 N.3     1  UNL1       -0.2961
     20 C         143.7413  134.6117  156.6022 C.3     1  UNL1        0.0883
     21 H         145.2880  133.6060  155.7247 H       1  UNL1        0.1233
     22 N         144.1941  139.4566  163.4284 N.pl3   1  UNL1       -0.2825
     23 H         145.0415  139.0850  163.7648 H       1  UNL1        0.1551
     24 C         141.5563  140.0965  168.0171 C.ar    1  UNL1        0.1554
     25 N         140.1088  139.8441  168.3189 N.ar    1  UNL1       -0.1646
     26 N         139.4528  139.3506  167.0634 N.ar    1  UNL1       -0.2487
     27 C         138.0084  138.9755  166.9122 C.3     1  UNL1        0.1537
     28 C         140.4949  139.2980  165.9858 C.ar    1  UNL1        0.0796
     29 C         140.4279  138.8898  164.5439 C.ar    1  UNL1        0.0201
     30 C         141.6610  138.9427  163.6915 C.ar    1  UNL1        0.0162
     31 C         142.9610  139.4037  164.2809 C.ar    1  UNL1        0.0506
     32 C         143.0280  139.8119  165.7227 C.ar    1  UNL1        0.0179
     33 C         141.7949  139.7590  166.5751 C.ar    1  UNL1        0.0423
     34 C         144.0804  142.5237  169.8847 C.3     1  UNL1        0.1110
     35 N         143.0520  142.0219  168.9149 N.am    1  UNL1       -0.2979
     36 C         142.5847  140.5983  168.9869 C.2     1  UNL1        0.2654
     37 O         143.1458  139.6767  170.0288 O.2     1  UNL1       -0.2684
     38 H         142.6837  142.6269  168.2310 H       1  UNL1        0.1498
@<TRIPOS>BOND
     1    34    35    1
     2    35    36   am
     3    36    37    2
     4    36    24    1
     5    24    25   ar
     6    25    26   ar
     7    26    27    1
     8    26    28   ar
     9    28    29   ar
    10    29    30   ar
    11    30    31   ar
    12    31    22    1
    13    22     1    1
    14     1     2   ar
    15     2     3   ar
    16     3     4   ar
    17     4     5   ar
    18     5     7    1
    19     7     8   ar
    20     8     9   ar
    21     9    13    1
    22    15    13    1
    23    15    16    1
    24    16    17    1
    25    17    18    1
    26    18    19    1
    27    19    20    1
    28     9    10   ar
    29    10    11    1
    30    10    12   ar
    31     5     6   ar
    32    31    32   ar
    33    32    33   ar
    34    33    24   ar
    35    33    28   ar
    36     6     1   ar
    37    12     7   ar
    38    20    15    1
    39    35    38    1
    40    22    23    1
    41    13    14    1
    42    19    21    1
@<TRIPOS>MOLECULE
*****
 38 42 0 0 0
SMALL
GASTEIGER

@<TRIPOS>ATOM
      1 C         138.9316  138.4426  161.2794 C.ar    1  UNL1        0.2221
      2 N         137.8801  139.4528  160.9275 N.ar    1  UNL1       -0.2119
      3 C         137.9648  140.2029  159.6312 C.ar    1  UNL1        0.1050
      4 C         139.1009  139.9429  158.6870 C.ar    1  UNL1        0.0596
      5 C         140.1524  138.9327  159.0390 C.ar    1  UNL1        0.1683
      6 N         140.0677  138.1826  160.3351 N.ar    1  UNL1       -0.1944
      7 N         141.2885  138.6726  158.0948 N.ar    1  UNL1       -0.2096
      8 C         141.9135  137.3383  157.8136 C.ar    1  UNL1        0.1175
      9 C         143.0103  137.5422  156.8110 C.ar    1  UNL1        0.0796
     10 C         143.0632  139.0026  156.4725 C.ar    1  UNL1        0.0939
     11 C         144.0135  139.6506  155.5096 C.3     1  UNL1        0.0553
     12 N         141.9990  139.7012  157.2659 N.ar    1  UNL1       -0.1668
     13 N         143.8984  136.4735  156.2461 N.pl3   1  UNL1       -0.3307
     14 H         144.7830  136.7091  155.8839 H       1  UNL1        0.1469
     15 C         143.4386  135.0458  156.2329 C.3     1  UNL1        0.0850
     16 C         142.9112  134.4393  154.9664 C.3     1  UNL1        0.0223
     17 C         142.4514  133.0115  154.9533 C.3     1  UNL1        0.0188
     18 C         142.5190  132.1903  156.2066 C.3     1  UNL1        0.0687
     19 N         143.0465  132.7968  157.4732 N.3     1  UNL1       -0.2961
     20 C         143.5062  134.2245  157.4863 C.3     1  UNL1        0.0883
     21 H         143.8425  132.2284  157.7626 H       1  UNL1        0.1233
     22 N         138.8470  137.6925  162.5756 N.pl3   1  UNL1       -0.2825
     23 H         138.4423  136.7953  162.5996 H       1  UNL1        0.1551
     24 C         142.6443  140.0602  165.4735 C.ar    1  UNL1        0.1554
     25 N         142.5966  140.5192  166.9008 N.ar    1  UNL1       -0.1646
     26 N         141.2360  140.1994  167.4452 N.ar    1  UNL1       -0.2487
     27 C         140.7532  140.4859  168.8362 C.3     1  UNL1        0.1537
     28 C         140.4428  139.5427  166.3545 C.ar    1  UNL1        0.0796
     29 C         139.0405  139.0120  166.3134 C.ar    1  UNL1        0.0201
     30 C         138.5085  138.3953  165.0538 C.ar    1  UNL1        0.0162
     31 C         139.3790  138.3092  163.8353 C.ar    1  UNL1        0.0506
     32 C         140.7813  138.8399  163.8763 C.ar    1  UNL1        0.0179
     33 C         141.3132  139.4567  165.1359 C.ar    1  UNL1        0.0423
     34 C         145.7415  141.6011  163.5284 C.3     1  UNL1        0.1110
     35 N         144.5686  141.4782  164.4553 N.am    1  UNL1       -0.2979
     36 C         143.8173  140.1831  164.5466 C.2     1  UNL1        0.2654
     37 O         144.2389  139.0110  163.7110 O.2     1  UNL1       -0.2684
     38 H         144.2919  142.2475  165.0038 H       1  UNL1        0.1498
@<TRIPOS>BOND
     1    34    35    1
     2    35    36   am
     3    36    37    2
     4    36    24    1
     5    24    25   ar
     6    25    26   ar
     7    26    27    1
     8    26    28   ar
     9    28    29   ar
    10    29    30   ar
    11    30    31   ar
    12    31    22    1
    13    22     1    1
    14     1     2   ar
    15     2     3   ar
    16     3     4   ar
    17     4     5   ar
    18     5     7    1
    19     7     8   ar
    20     8     9   ar
    21     9    13    1
    22    15    13    1
    23    15    16    1
    24    16    17    1
    25    17    18    1
    26    18    19    1
    27    19    20    1
    28     9    10   ar
    29    10    11    1
    30    10    12   ar
    31     5     6   ar
    32    31    32   ar
    33    32    33   ar
    34    33    24   ar
    35    33    28   ar
    36     6     1   ar
    37    12     7   ar
    38    20    15    1
    39    35    38    1
    40    22    23    1
    41    13    14    1
    42    19    21    1
@<TRIPOS>MOLECULE
*****
 38 42 0 0 0
SMALL
GASTEIGER

@<TRIPOS>ATOM
      1 C         142.5528  144.0246  158.0291 C.ar    1  UNL1        0.2221
      2 N         142.2219  145.2845  157.2853 N.ar    1  UNL1       -0.2119
      3 C         141.0042  146.0774  157.6576 C.ar    1  UNL1        0.1050
      4 C         140.1174  145.6104  158.7736 C.ar    1  UNL1        0.0596
      5 C         140.4483  144.3505  159.5174 C.ar    1  UNL1        0.1683
      6 N         141.6659  143.5576  159.1451 N.ar    1  UNL1       -0.1944
      7 N         139.5615  143.8835  160.6334 N.ar    1  UNL1       -0.2096
      8 C         138.8387  142.5706  160.6946 C.ar    1  UNL1        0.1175
      9 C         138.0723  142.5230  161.9832 C.ar    1  UNL1        0.0796
     10 C         138.3215  143.8066  162.7183 C.ar    1  UNL1        0.0939
     11 C         137.7505  144.1833  164.0533 C.3     1  UNL1        0.0553
     12 N         139.2419  144.6474  161.8840 N.ar    1  UNL1       -0.1668
     13 N         137.2084  141.3908  162.4540 N.pl3   1  UNL1       -0.3307
     14 H         136.2299  141.4964  162.4808 H       1  UNL1        0.1469
     15 C         137.8352  140.0977  162.8839 C.3     1  UNL1        0.0850
     16 C         138.3447  139.9408  164.2861 C.3     1  UNL1        0.0223
     17 C         138.9716  138.6477  164.7160 C.3     1  UNL1        0.0188
     18 C         139.0890  137.5114  163.7439 C.3     1  UNL1        0.0687
     19 N         138.5796  137.6682  162.3417 N.3     1  UNL1       -0.2961
     20 C         137.9527  138.9614  161.9118 C.3     1  UNL1        0.0883
     21 H         137.8796  136.9401  162.1996 H       1  UNL1        0.1233
     22 N         143.7704  143.2317  157.6568 N.pl3   1  UNL1       -0.2825
     23 H         144.6543  143.6649  157.6417 H       1  UNL1        0.1551
     24 C         142.9021  138.1116  158.8630 C.ar    1  UNL1        0.1554
     25 N         142.9003  136.9144  157.9593 N.ar    1  UNL1       -0.1646
     26 N         143.1976  137.3846  156.5664 N.ar    1  UNL1       -0.2487
     27 C         143.2927  136.5190  155.3450 C.3     1  UNL1        0.1537
     28 C         143.3832  138.8725  156.6091 C.ar    1  UNL1        0.0796
     29 C         143.6949  139.8762  155.5389 C.ar    1  UNL1        0.0201
     30 C         143.8240  141.3293  155.8882 C.ar    1  UNL1        0.0162
     31 C         143.6413  141.7786  157.3076 C.ar    1  UNL1        0.0506
     32 C         143.3296  140.7748  158.3778 C.ar    1  UNL1        0.0179
     33 C         143.2006  139.3218  158.0285 C.ar    1  UNL1        0.0423
     34 C         143.4731  138.5311  162.7679 C.3     1  UNL1        0.1110
     35 N         143.7255  138.5421  161.2893 N.am    1  UNL1       -0.2979
     36 C         142.6498  138.1006  160.3416 C.2     1  UNL1        0.2654
     37 O         141.3219  137.6482  160.8725 O.2     1  UNL1       -0.2684
     38 H         144.5970  138.8391  160.9409 H       1  UNL1        0.1498
@<TRIPOS>BOND
     1    34    35    1
     2    35    36   am
     3    36    37    2
     4    36    24    1
     5    24    25   ar
     6    25    26   ar
     7    26    27    1
     8    26    28   ar
     9    28    29   ar
    10    29    30   ar
    11    30    31   ar
    12    31    22    1
    13    22     1    1
    14     1     2   ar
    15     2     3   ar
    16     3     4   ar
    17     4     5   ar
    18     5     7    1
    19     7     8   ar
    20     8     9   ar
    21     9    13    1
    22    15    13    1
    23    15    16    1
    24    16    17    1
    25    17    18    1
    26    18    19    1
    27    19    20    1
    28     9    10   ar
    29    10    11    1
    30    10    12   ar
    31     5     6   ar
    32    31    32   ar
    33    32    33   ar
    34    33    24   ar
    35    33    28   ar
    36     6     1   ar
    37    12     7   ar
    38    20    15    1
    39    35    38    1
    40    22    23    1
    41    13    14    1
    42    19    21    1
@<TRIPOS>MOLECULE
*****
 38 42 0 0 0
SMALL
GASTEIGER

@<TRIPOS>ATOM
      1 C         142.5967  138.2425  159.9904 C.ar    1  UNL1        0.2221
      2 N         142.8863  137.5540  158.6895 N.ar    1  UNL1       -0.2119
      3 C         142.9946  138.3542  157.4254 C.ar    1  UNL1        0.1050
      4 C         142.8132  139.8427  157.4621 C.ar    1  UNL1        0.0596
      5 C         142.5235  140.5311  158.7629 C.ar    1  UNL1        0.1683
      6 N         142.4152  139.7310  160.0270 N.ar    1  UNL1       -0.1944
      7 N         142.3420  142.0196  158.7996 N.ar    1  UNL1       -0.2096
      8 C         141.9454  142.8302  159.9978 C.ar    1  UNL1        0.1175
      9 C         141.8836  144.2705  159.5833 C.ar    1  UNL1        0.0796
     10 C         142.2421  144.3500  158.1289 C.ar    1  UNL1        0.0939
     11 C         142.3061  145.6010  157.3037 C.3     1  UNL1        0.0553
     12 N         142.5254  142.9589  157.6446 N.ar    1  UNL1       -0.1668
     13 N         141.5261  145.4280  160.4678 N.pl3   1  UNL1       -0.3307
     14 H         141.6977  146.3493  160.1662 H       1  UNL1        0.1469
     15 C         140.9072  145.1817  161.8118 C.3     1  UNL1        0.0850
     16 C         141.7734  144.8172  162.9810 C.3     1  UNL1        0.0223
     17 C         141.1544  144.5709  164.3250 C.3     1  UNL1        0.0188
     18 C         139.6694  144.6892  164.4998 C.3     1  UNL1        0.0687
     19 N         138.8032  145.0538  163.3306 N.3     1  UNL1       -0.2961
     20 C         139.4221  145.3000  161.9866 C.3     1  UNL1        0.0883
     21 H         138.3065  145.9070  163.5869 H       1  UNL1        0.1233
     22 N         142.4884  137.4424  161.2545 N.pl3   1  UNL1       -0.2825
     23 H         143.0783  136.6674  161.3986 H       1  UNL1        0.1551
     24 C         138.4772  140.4098  163.1328 C.ar    1  UNL1        0.1554
     25 N         137.7645  140.3123  164.4491 N.ar    1  UNL1       -0.1646
     26 N         138.3765  139.1838  165.2250 N.ar    1  UNL1       -0.2487
     27 C         137.9692  138.7341  166.5968 C.3     1  UNL1        0.1537
     28 C         139.4675  138.5840  164.3883 C.ar    1  UNL1        0.0796
     29 C         140.4122  137.4457  164.6367 C.ar    1  UNL1        0.0201
     30 C         141.4192  137.0652  163.5922 C.ar    1  UNL1        0.0162
     31 C         141.4814  137.8229  162.2991 C.ar    1  UNL1        0.0506
     32 C         140.5366  138.9612  162.0506 C.ar    1  UNL1        0.0179
     33 C         139.5297  139.3417  163.0952 C.ar    1  UNL1        0.0423
     34 C         138.4304  142.1642  159.5733 C.3     1  UNL1        0.1110
     35 N         138.7195  141.1726  160.6610 N.am    1  UNL1       -0.2979
     36 C         138.1882  141.4014  162.0451 C.2     1  UNL1        0.2654
     37 O         137.3679  142.6218  162.3412 O.2     1  UNL1       -0.2684
     38 H         139.2578  140.3716  160.4666 H       1  UNL1        0.1498
@<TRIPOS>BOND
     1    34    35    1
     2    35    36   am
     3    36    37    2
     4    36    24    1
     5    24    25   ar
     6    25    26   ar
     7    26    27    1
     8    26    28   ar
     9    28    29   ar
    10    29    30   ar
    11    30    31   ar
    12    31    22    1
    13    22     1    1
    14     1     2   ar
    15     2     3   ar
    16     3     4   ar
    17     4     5   ar
    18     5     7    1
    19     7     8   ar
    20     8     9   ar
    21     9    13    1
    22    15    13    1
    23    15    16    1
    24    16    17    1
    25    17    18    1
    26    18    19    1
    27    19    20    1
    28     9    10   ar
    29    10    11    1
    30    10    12   ar
    31     5     6   ar
    32    31    32   ar
    33    32    33   ar
    34    33    24   ar
    35    33    28   ar
    36     6     1   ar
    37    12     7   ar
    38    20    15    1
    39    35    38    1
    40    22    23    1
    41    13    14    1
    42    19    21    1
