@<TRIPOS>MOLECULE
*****
 28 31 0 0 0
SMALL
GASTEIGER

@<TRIPOS>ATOM
      1 C         138.4947  143.2705  163.0911 C.ar    1  UNL1        0.2822
      2 N         137.5467  142.4093  162.3102 N.ar    1  UNL1       -0.0371
      3 O         137.3716  141.1192  163.0553 O.2     1  UNL1       -0.3488
      4 C         138.2114  141.1831  164.2966 C.ar    1  UNL1        0.1977
      5 C         138.4336  140.2024  165.4096 C.ar    1  UNL1        0.0435
      6 C         139.3500  140.5513  166.5447 C.ar    1  UNL1        0.0224
      7 C         140.0441  141.8809  166.5668 C.ar    1  UNL1        0.0825
      8 N         139.8218  142.8616  165.4538 N.ar    1  UNL1       -0.2374
      9 C         138.9055  142.5127  164.3187 C.ar    1  UNL1        0.1742
     10 C         140.9605  142.2297  167.7020 C.ar    1  UNL1        0.0282
     11 C         140.4299  142.9696  168.8940 C.ar    1  UNL1        0.0023
     12 C         141.3463  143.3184  170.0292 C.ar    1  UNL1        0.0001
     13 C         142.7933  142.9274  169.9723 C.ar    1  UNL1        0.0009
     14 C         143.3239  142.1875  168.7801 C.ar    1  UNL1        0.0114
     15 C         142.4075  141.8387  167.6450 C.ar    1  UNL1        0.0591
     16 CL        142.9381  141.0988  166.4529 Cl      1  UNL1       -0.0822
     17 O         138.9517  144.6477  162.7110 O.3     1  UNL1       -0.4550
     18 C         140.2683  144.8363  162.0173 C.3     1  UNL1        0.2053
     19 C         141.5378  144.3994  162.6862 C.ar    1  UNL1        0.0186
     20 C         142.0806  143.0231  162.4391 C.ar    1  UNL1       -0.0008
     21 C         143.3501  142.5862  163.1080 C.ar    1  UNL1       -0.0002
     22 C         144.0769  143.5258  164.0239 C.ar    1  UNL1       -0.0000
     23 C         143.5341  144.9021  164.2710 C.ar    1  UNL1       -0.0002
     24 C         142.2646  145.3390  163.6021 C.ar    1  UNL1       -0.0008
     25 N         141.6021  145.4857  159.8844 N.3     1  UNL1       -0.3179
     26 C         140.3152  145.4617  160.6547 C.3     1  UNL1        0.1140
     27 H         141.4522  145.9453  158.9862 H       1  UNL1        0.1190
     28 H         141.9227  144.5301  159.7281 H       1  UNL1        0.1190
@<TRIPOS>BOND
     1    25    26    1
     2    18    26    1
     3    18    17    1
     4    17     1    1
     5     1     2   ar
     6     2     3   ar
     7     3     4   ar
     8     4     5   ar
     9     5     6   ar
    10     6     7   ar
    11     7    10    1
    12    10    11   ar
    13    11    12   ar
    14    12    13   ar
    15    13    14   ar
    16    14    15   ar
    17    15    16    1
    18     7     8   ar
    19     8     9   ar
    20    18    19    1
    21    19    20   ar
    22    20    21   ar
    23    21    22   ar
    24    22    23   ar
    25    23    24   ar
    26     9     1   ar
    27    24    19   ar
    28     9     4   ar
    29    15    10   ar
    30    25    27    1
    31    25    28    1
@<TRIPOS>MOLECULE
*****
 28 31 0 0 0
SMALL
GASTEIGER

@<TRIPOS>ATOM
      1 C         139.4069  140.1101  167.5216 C.ar    1  UNL1        0.2822
      2 N         139.2933  139.8528  168.9950 N.ar    1  UNL1       -0.0371
      3 O         140.4948  140.4517  169.6641 O.2     1  UNL1       -0.3488
      4 C         141.3510  141.0792  168.6042 C.ar    1  UNL1        0.1977
      5 C         142.6559  141.8155  168.6739 C.ar    1  UNL1        0.0435
      6 C         143.2885  142.3408  167.4193 C.ar    1  UNL1        0.0224
      7 C         142.6161  142.1297  166.0952 C.ar    1  UNL1        0.0825
      8 N         141.3112  141.3933  166.0255 N.ar    1  UNL1       -0.2374
      9 C         140.6786  140.8681  167.2801 C.ar    1  UNL1        0.1742
     10 C         143.2488  142.6549  164.8406 C.ar    1  UNL1        0.0282
     11 C         142.9496  144.0497  164.3770 C.ar    1  UNL1        0.0023
     12 C         143.5823  144.5750  163.1224 C.ar    1  UNL1        0.0001
     13 C         144.5141  143.7054  162.3315 C.ar    1  UNL1        0.0009
     14 C         144.8133  142.3105  162.7951 C.ar    1  UNL1        0.0114
     15 C         144.1806  141.7853  164.0497 C.ar    1  UNL1        0.0591
     16 CL        144.4797  140.3905  164.5133 Cl      1  UNL1       -0.0822
     17 O         138.4218  139.6843  166.4736 O.3     1  UNL1       -0.4550
     18 C         138.5113  138.3124  165.8734 C.3     1  UNL1        0.2053
     19 C         139.3640  138.0780  164.6618 C.ar    1  UNL1        0.0186
     20 C         138.7581  138.1554  163.2919 C.ar    1  UNL1       -0.0008
     21 C         139.6108  137.9210  162.0803 C.ar    1  UNL1       -0.0002
     22 C         141.0695  137.6092  162.2388 C.ar    1  UNL1       -0.0000
     23 C         141.6754  137.5318  163.6088 C.ar    1  UNL1       -0.0002
     24 C         140.8226  137.7662  164.8203 C.ar    1  UNL1       -0.0008
     25 N         136.7378  137.4423  167.5609 N.3     1  UNL1       -0.3179
     26 C         137.7480  137.1750  166.4848 C.3     1  UNL1        0.1140
     27 H         136.3177  136.5619  167.8590 H       1  UNL1        0.1190
     28 H         136.0113  138.0603  167.1993 H       1  UNL1        0.1190
@<TRIPOS>BOND
     1    25    26    1
     2    18    26    1
     3    18    17    1
     4    17     1    1
     5     1     2   ar
     6     2     3   ar
     7     3     4   ar
     8     4     5   ar
     9     5     6   ar
    10     6     7   ar
    11     7    10    1
    12    10    11   ar
    13    11    12   ar
    14    12    13   ar
    15    13    14   ar
    16    14    15   ar
    17    15    16    1
    18     7     8   ar
    19     8     9   ar
    20    18    19    1
    21    19    20   ar
    22    20    21   ar
    23    21    22   ar
    24    22    23   ar
    25    23    24   ar
    26     9     1   ar
    27    24    19   ar
    28     9     4   ar
    29    15    10   ar
    30    25    27    1
    31    25    28    1
@<TRIPOS>MOLECULE
*****
 28 31 0 0 0
SMALL
GASTEIGER

@<TRIPOS>ATOM
      1 C         138.6708  139.5030  167.2355 C.ar    1  UNL1        0.2822
      2 N         138.1323  139.3023  168.6211 N.ar    1  UNL1       -0.0371
      3 O         139.2098  139.6758  169.5956 O.2     1  UNL1       -0.3488
      4 C         140.4141  140.1072  168.8124 C.ar    1  UNL1        0.1977
      5 C         141.7710  140.5836  169.2389 C.ar    1  UNL1        0.0435
      6 C         142.7947  140.9531  168.2068 C.ar    1  UNL1        0.0224
      7 C         142.4616  140.8464  166.7481 C.ar    1  UNL1        0.0825
      8 N         141.1047  140.3700  166.3216 N.ar    1  UNL1       -0.2374
      9 C         140.0810  140.0005  167.3537 C.ar    1  UNL1        0.1742
     10 C         143.4854  141.2159  165.7160 C.ar    1  UNL1        0.0282
     11 C         143.8777  142.6516  165.5292 C.ar    1  UNL1        0.0023
     12 C         144.9015  143.0212  164.4970 C.ar    1  UNL1        0.0001
     13 C         145.5331  141.9550  163.6518 C.ar    1  UNL1        0.0009
     14 C         145.1407  140.5193  163.8386 C.ar    1  UNL1        0.0114
     15 C         144.1170  140.1498  164.8707 C.ar    1  UNL1        0.0591
     16 CL        143.7246  138.7141  165.0576 Cl      1  UNL1       -0.0822
     17 O         137.9292  139.2506  165.9563 O.3     1  UNL1       -0.4550
     18 C         138.4090  139.8691  164.6767 C.3     1  UNL1        0.2053
     19 C         139.4635  139.1819  163.8607 C.ar    1  UNL1        0.0186
     20 C         140.1288  139.9086  162.7296 C.ar    1  UNL1       -0.0008
     21 C         141.1833  139.2215  161.9137 C.ar    1  UNL1       -0.0002
     22 C         141.5725  137.8076  162.2288 C.ar    1  UNL1       -0.0000
     23 C         140.9073  137.0808  163.3599 C.ar    1  UNL1       -0.0002
     24 C         139.8527  137.7680  164.1759 C.ar    1  UNL1       -0.0008
     25 N         136.8439  141.2006  163.0868 N.3     1  UNL1       -0.3179
     26 C         137.8343  141.1747  164.2130 C.3     1  UNL1        0.1140
     27 H         136.5605  142.1634  162.9053 H       1  UNL1        0.1190
     28 H         136.0254  140.6475  163.3411 H       1  UNL1        0.1190
@<TRIPOS>BOND
     1    25    26    1
     2    18    26    1
     3    18    17    1
     4    17     1    1
     5     1     2   ar
     6     2     3   ar
     7     3     4   ar
     8     4     5   ar
     9     5     6   ar
    10     6     7   ar
    11     7    10    1
    12    10    11   ar
    13    11    12   ar
    14    12    13   ar
    15    13    14   ar
    16    14    15   ar
    17    15    16    1
    18     7     8   ar
    19     8     9   ar
    20    18    19    1
    21    19    20   ar
    22    20    21   ar
    23    21    22   ar
    24    22    23   ar
    25    23    24   ar
    26     9     1   ar
    27    24    19   ar
    28     9     4   ar
    29    15    10   ar
    30    25    27    1
    31    25    28    1
@<TRIPOS>MOLECULE
*****
 28 31 0 0 0
SMALL
GASTEIGER

@<TRIPOS>ATOM
      1 C         139.7860  140.7783  169.1848 C.ar    1  UNL1        0.2822
      2 N         138.8763  140.5801  170.3609 N.ar    1  UNL1       -0.0371
      3 O         137.8102  139.6030  169.9627 O.2     1  UNL1       -0.3488
      4 C         138.0610  139.1972  168.5406 C.ar    1  UNL1        0.1977
      5 C         137.3352  138.2602  167.6213 C.ar    1  UNL1        0.0435
      6 C         137.8306  138.0495  166.2212 C.ar    1  UNL1        0.0224
      7 C         139.0517  138.7759  165.7405 C.ar    1  UNL1        0.0825
      8 N         139.7775  139.7130  166.6598 N.ar    1  UNL1       -0.2374
      9 C         139.2821  139.9236  168.0598 C.ar    1  UNL1        0.1742
     10 C         139.5471  138.5653  164.3403 C.ar    1  UNL1        0.0282
     11 C         140.6412  137.5746  164.0730 C.ar    1  UNL1        0.0023
     12 C         141.1366  137.3639  162.6729 C.ar    1  UNL1        0.0001
     13 C         140.5378  138.1439  161.5401 C.ar    1  UNL1        0.0009
     14 C         139.4436  139.1346  161.8075 C.ar    1  UNL1        0.0114
     15 C         138.9483  139.3452  163.2076 C.ar    1  UNL1        0.0591
     16 CL        137.8541  140.3359  163.4750 Cl      1  UNL1       -0.0822
     17 O         140.9885  141.6739  169.1414 O.3     1  UNL1       -0.4550
     18 C         142.3599  141.0820  169.0029 C.3     1  UNL1        0.2053
     19 C         142.8027  140.5152  167.6865 C.ar    1  UNL1        0.0186
     20 C         143.0377  139.0404  167.5460 C.ar    1  UNL1       -0.0008
     21 C         143.4805  138.4736  166.2297 C.ar    1  UNL1       -0.0002
     22 C         143.6881  139.3816  165.0540 C.ar    1  UNL1       -0.0000
     23 C         143.4531  140.8564  165.1945 C.ar    1  UNL1       -0.0002
     24 C         143.0103  141.4232  166.5108 C.ar    1  UNL1       -0.0008
     25 N         143.3833  139.8278  171.0350 N.3     1  UNL1       -0.3179
     26 C         143.2885  141.0570  170.1806 C.3     1  UNL1        0.1140
     27 H         144.0572  139.9857  171.7843 H       1  UNL1        0.1190
     28 H         143.6884  139.0396  170.4640 H       1  UNL1        0.1190
@<TRIPOS>BOND
     1    25    26    1
     2    18    26    1
     3    18    17    1
     4    17     1    1
     5     1     2   ar
     6     2     3   ar
     7     3     4   ar
     8     4     5   ar
     9     5     6   ar
    10     6     7   ar
    11     7    10    1
    12    10    11   ar
    13    11    12   ar
    14    12    13   ar
    15    13    14   ar
    16    14    15   ar
    17    15    16    1
    18     7     8   ar
    19     8     9   ar
    20    18    19    1
    21    19    20   ar
    22    20    21   ar
    23    21    22   ar
    24    22    23   ar
    25    23    24   ar
    26     9     1   ar
    27    24    19   ar
    28     9     4   ar
    29    15    10   ar
    30    25    27    1
    31    25    28    1
@<TRIPOS>MOLECULE
*****
 28 31 0 0 0
SMALL
GASTEIGER

@<TRIPOS>ATOM
      1 C         142.9921  144.2170  162.9826 C.ar    1  UNL1        0.2822
      2 N         144.3767  144.2450  162.4063 N.ar    1  UNL1       -0.0371
      3 O         145.0455  142.9454  162.7438 O.2     1  UNL1       -0.3488
      4 C         144.0743  142.1143  163.5286 C.ar    1  UNL1        0.1977
      5 C         144.1816  140.7434  164.1279 C.ar    1  UNL1        0.0435
      6 C         143.0198  140.1585  164.8748 C.ar    1  UNL1        0.0224
      7 C         141.7507  140.9443  165.0225 C.ar    1  UNL1        0.0825
      8 N         141.6434  142.3152  164.4231 N.ar    1  UNL1       -0.2374
      9 C         142.8052  142.9002  163.6762 C.ar    1  UNL1        0.1742
     10 C         140.5888  140.3593  165.7694 C.ar    1  UNL1        0.0282
     11 C         140.5303  140.4618  167.2647 C.ar    1  UNL1        0.0023
     12 C         139.3684  139.8767  168.0117 C.ar    1  UNL1        0.0001
     13 C         138.2651  139.1892  167.2633 C.ar    1  UNL1        0.0009
     14 C         138.3237  139.0868  165.7679 C.ar    1  UNL1        0.0114
     15 C         139.4855  139.6718  165.0210 C.ar    1  UNL1        0.0591
     16 CL        139.5441  139.5693  163.5256 Cl      1  UNL1       -0.0822
     17 O         141.9732  145.3133  162.8828 O.3     1  UNL1       -0.4550
     18 C         140.6719  145.0661  162.1788 C.3     1  UNL1        0.2053
     19 C         139.5468  144.3847  162.8997 C.ar    1  UNL1        0.0186
     20 C         139.1545  144.8367  164.2752 C.ar    1  UNL1       -0.0008
     21 C         138.0294  144.1554  164.9962 C.ar    1  UNL1       -0.0002
     22 C         137.2965  143.0220  164.3417 C.ar    1  UNL1       -0.0000
     23 C         137.6888  142.5700  162.9662 C.ar    1  UNL1       -0.0002
     24 C         138.8139  143.2514  162.2452 C.ar    1  UNL1       -0.0008
     25 N         141.6712  145.5101  159.8220 N.3     1  UNL1       -0.3179
     26 C         140.4958  145.5002  160.7538 C.3     1  UNL1        0.1140
     27 H         141.3722  145.8301  158.9008 H       1  UNL1        0.1190
     28 H         142.0536  144.5675  159.7470 H       1  UNL1        0.1190
@<TRIPOS>BOND
     1    25    26    1
     2    18    26    1
     3    18    17    1
     4    17     1    1
     5     1     2   ar
     6     2     3   ar
     7     3     4   ar
     8     4     5   ar
     9     5     6   ar
    10     6     7   ar
    11     7    10    1
    12    10    11   ar
    13    11    12   ar
    14    12    13   ar
    15    13    14   ar
    16    14    15   ar
    17    15    16    1
    18     7     8   ar
    19     8     9   ar
    20    18    19    1
    21    19    20   ar
    22    20    21   ar
    23    21    22   ar
    24    22    23   ar
    25    23    24   ar
    26     9     1   ar
    27    24    19   ar
    28     9     4   ar
    29    15    10   ar
    30    25    27    1
    31    25    28    1
@<TRIPOS>MOLECULE
*****
 28 31 0 0 0
SMALL
GASTEIGER

@<TRIPOS>ATOM
      1 C         143.8077  142.9526  162.9742 C.ar    1  UNL1        0.2822
      2 N         145.1856  142.7175  162.4301 N.ar    1  UNL1       -0.0371
      3 O         145.5970  141.3224  162.7969 O.2     1  UNL1       -0.3488
      4 C         144.4733  140.6953  163.5676 C.ar    1  UNL1        0.1977
      5 C         144.3142  139.3370  164.1838 C.ar    1  UNL1        0.0435
      6 C         143.0493  138.9862  164.9095 C.ar    1  UNL1        0.0224
      7 C         141.9434  139.9937  165.0191 C.ar    1  UNL1        0.0825
      8 N         142.1025  141.3520  164.4030 N.ar    1  UNL1       -0.2374
      9 C         143.3674  141.7028  163.6772 C.ar    1  UNL1        0.1742
     10 C         140.6784  139.6428  165.7449 C.ar    1  UNL1        0.0282
     11 C         140.4650  140.1165  167.1521 C.ar    1  UNL1        0.0023
     12 C         139.2000  139.7656  167.8779 C.ar    1  UNL1        0.0001
     13 C         138.1484  138.9411  167.1965 C.ar    1  UNL1        0.0009
     14 C         138.3618  138.4674  165.7893 C.ar    1  UNL1        0.0114
     15 C         139.6268  138.8183  165.0635 C.ar    1  UNL1        0.0591
     16 CL        139.8402  138.3446  163.6563 Cl      1  UNL1       -0.0822
     17 O         143.0100  144.2157  162.8391 O.3     1  UNL1       -0.4550
     18 C         141.6954  144.1989  162.1167 C.3     1  UNL1        0.2053
     19 C         140.4125  144.1955  162.8939 C.ar    1  UNL1        0.0186
     20 C         139.1325  143.7873  162.2269 C.ar    1  UNL1       -0.0008
     21 C         137.8496  143.7839  163.0041 C.ar    1  UNL1       -0.0002
     22 C         137.8468  144.1887  164.4485 C.ar    1  UNL1       -0.0000
     23 C         139.1268  144.5968  165.1155 C.ar    1  UNL1       -0.0002
     24 C         140.4097  144.6002  164.3383 C.ar    1  UNL1       -0.0008
     25 N         141.6852  145.4771  159.8548 N.3     1  UNL1       -0.3179
     26 C         141.6638  144.1854  160.6171 C.3     1  UNL1        0.1140
     27 H         141.6588  145.2818  158.8540 H       1  UNL1        0.1190
     28 H         142.5380  145.9899  160.0787 H       1  UNL1        0.1190
@<TRIPOS>BOND
     1    25    26    1
     2    18    26    1
     3    18    17    1
     4    17     1    1
     5     1     2   ar
     6     2     3   ar
     7     3     4   ar
     8     4     5   ar
     9     5     6   ar
    10     6     7   ar
    11     7    10    1
    12    10    11   ar
    13    11    12   ar
    14    12    13   ar
    15    13    14   ar
    16    14    15   ar
    17    15    16    1
    18     7     8   ar
    19     8     9   ar
    20    18    19    1
    21    19    20   ar
    22    20    21   ar
    23    21    22   ar
    24    22    23   ar
    25    23    24   ar
    26     9     1   ar
    27    24    19   ar
    28     9     4   ar
    29    15    10   ar
    30    25    27    1
    31    25    28    1
@<TRIPOS>MOLECULE
*****
 28 31 0 0 0
SMALL
GASTEIGER

@<TRIPOS>ATOM
      1 C         144.4502  139.9926  163.1725 C.ar    1  UNL1        0.2822
      2 N         145.1916  140.9703  162.3097 N.ar    1  UNL1       -0.0371
      3 O         145.1779  142.3016  163.0008 O.2     1  UNL1       -0.3488
      4 C         144.4282  142.1466  164.2907 C.ar    1  UNL1        0.1977
      5 C         144.0969  143.1205  165.3823 C.ar    1  UNL1        0.0435
      6 C         143.3159  142.6674  166.5801 C.ar    1  UNL1        0.0224
      7 C         142.8661  141.2404  166.6862 C.ar    1  UNL1        0.0825
      8 N         143.1974  140.2664  165.5946 N.ar    1  UNL1       -0.2374
      9 C         143.9784  140.7195  164.3968 C.ar    1  UNL1        0.1742
     10 C         142.0851  140.7873  167.8840 C.ar    1  UNL1        0.0282
     11 C         142.7939  140.4838  169.1706 C.ar    1  UNL1        0.0023
     12 C         142.0129  140.0307  170.3685 C.ar    1  UNL1        0.0001
     13 C         140.5230  139.8811  170.2796 C.ar    1  UNL1        0.0009
     14 C         139.8142  140.1846  168.9929 C.ar    1  UNL1        0.0114
     15 C         140.5952  140.6377  167.7952 C.ar    1  UNL1        0.0591
     16 CL        139.8864  140.9412  166.5085 Cl      1  UNL1       -0.0822
     17 O         144.2210  138.5425  162.8650 O.3     1  UNL1       -0.4550
     18 C         143.0570  138.1314  162.0126 C.3     1  UNL1        0.2053
     19 C         141.6967  137.9760  162.6252 C.ar    1  UNL1        0.0186
     20 C         140.4703  138.1075  161.7717 C.ar    1  UNL1       -0.0008
     21 C         139.1099  137.9521  162.3843 C.ar    1  UNL1       -0.0002
     22 C         138.9760  137.6653  163.8505 C.ar    1  UNL1       -0.0000
     23 C         140.2025  137.5338  164.7040 C.ar    1  UNL1       -0.0002
     24 C         141.5628  137.6892  164.0914 C.ar    1  UNL1       -0.0008
     25 N         143.7663  138.9689  159.6577 N.3     1  UNL1       -0.3179
     26 C         143.2535  137.8758  160.5477 C.3     1  UNL1        0.1140
     27 H         143.8381  138.6228  158.7009 H       1  UNL1        0.1190
     28 H         144.6864  139.2673  159.9813 H       1  UNL1        0.1190
@<TRIPOS>BOND
     1    25    26    1
     2    18    26    1
     3    18    17    1
     4    17     1    1
     5     1     2   ar
     6     2     3   ar
     7     3     4   ar
     8     4     5   ar
     9     5     6   ar
    10     6     7   ar
    11     7    10    1
    12    10    11   ar
    13    11    12   ar
    14    12    13   ar
    15    13    14   ar
    16    14    15   ar
    17    15    16    1
    18     7     8   ar
    19     8     9   ar
    20    18    19    1
    21    19    20   ar
    22    20    21   ar
    23    21    22   ar
    24    22    23   ar
    25    23    24   ar
    26     9     1   ar
    27    24    19   ar
    28     9     4   ar
    29    15    10   ar
    30    25    27    1
    31    25    28    1
@<TRIPOS>MOLECULE
*****
 28 31 0 0 0
SMALL
GASTEIGER

@<TRIPOS>ATOM
      1 C         142.0409  138.3231  163.7345 C.ar    1  UNL1        0.2822
      2 N         141.3623  137.3643  162.8017 N.ar    1  UNL1       -0.0371
      3 O         139.9417  137.2033  163.2555 O.2     1  UNL1       -0.3488
      4 C         139.7423  138.0625  164.4687 C.ar    1  UNL1        0.1977
      5 C         138.5470  138.3041  165.3421 C.ar    1  UNL1        0.0435
      6 C         138.6492  139.2378  166.5116 C.ar    1  UNL1        0.0224
      7 C         139.9466  139.9299  166.8077 C.ar    1  UNL1        0.0825
      8 N         141.1419  139.6883  165.9343 N.ar    1  UNL1       -0.2374
      9 C         141.0397  138.7546  164.7648 C.ar    1  UNL1        0.1742
     10 C         140.0487  140.8637  167.9772 C.ar    1  UNL1        0.0282
     11 C         139.8791  140.3396  169.3724 C.ar    1  UNL1        0.0023
     12 C         139.9811  141.2734  170.5419 C.ar    1  UNL1        0.0001
     13 C         140.2529  142.7312  170.3162 C.ar    1  UNL1        0.0009
     14 C         140.4225  143.2553  168.9209 C.ar    1  UNL1        0.0114
     15 C         140.3204  142.3215  167.7515 C.ar    1  UNL1        0.0591
     16 CL        140.4901  142.8456  166.3562 Cl      1  UNL1       -0.0822
     17 O         143.4699  138.7717  163.6516 O.3     1  UNL1       -0.4550
     18 C         143.8361  139.9574  162.8090 C.3     1  UNL1        0.2053
     19 C         143.9220  141.3205  163.4292 C.ar    1  UNL1        0.0186
     20 C         143.9641  141.4641  164.9217 C.ar    1  UNL1       -0.0008
     21 C         144.0500  142.8271  165.5419 C.ar    1  UNL1       -0.0002
     22 C         144.0937  144.0466  164.6696 C.ar    1  UNL1       -0.0000
     23 C         144.0516  143.9030  163.1771 C.ar    1  UNL1       -0.0002
     24 C         143.9657  142.5399  162.5568 C.ar    1  UNL1       -0.0008
     25 N         144.5091  138.4331  160.8156 N.3     1  UNL1       -0.3179
     26 C         144.1164  139.7800  161.3461 C.3     1  UNL1        0.1140
     27 H         144.6603  138.4951  159.8088 H       1  UNL1        0.1190
     28 H         143.7651  137.7621  161.0070 H       1  UNL1        0.1190
@<TRIPOS>BOND
     1    25    26    1
     2    18    26    1
     3    18    17    1
     4    17     1    1
     5     1     2   ar
     6     2     3   ar
     7     3     4   ar
     8     4     5   ar
     9     5     6   ar
    10     6     7   ar
    11     7    10    1
    12    10    11   ar
    13    11    12   ar
    14    12    13   ar
    15    13    14   ar
    16    14    15   ar
    17    15    16    1
    18     7     8   ar
    19     8     9   ar
    20    18    19    1
    21    19    20   ar
    22    20    21   ar
    23    21    22   ar
    24    22    23   ar
    25    23    24   ar
    26     9     1   ar
    27    24    19   ar
    28     9     4   ar
    29    15    10   ar
    30    25    27    1
    31    25    28    1
@<TRIPOS>MOLECULE
*****
 28 31 0 0 0
SMALL
GASTEIGER

@<TRIPOS>ATOM
      1 C         143.7380  142.9318  163.0340 C.ar    1  UNL1        0.2822
      2 N         145.1242  142.7331  162.4965 N.ar    1  UNL1       -0.0371
      3 O         145.5445  141.3271  162.8071 O.2     1  UNL1       -0.3488
      4 C         144.4181  140.6568  163.5364 C.ar    1  UNL1        0.1977
      5 C         144.2648  139.2716  164.0909 C.ar    1  UNL1        0.0435
      6 C         142.9949  138.8781  164.7856 C.ar    1  UNL1        0.0224
      7 C         141.8784  139.8700  164.9258 C.ar    1  UNL1        0.0825
      8 N         142.0317  141.2552  164.3713 N.ar    1  UNL1       -0.2374
      9 C         143.3015  141.6487  163.6766 C.ar    1  UNL1        0.1742
     10 C         140.6085  139.4764  165.6206 C.ar    1  UNL1        0.0282
     11 C         139.6898  138.4715  164.9915 C.ar    1  UNL1        0.0023
     12 C         138.4199  138.0780  165.6862 C.ar    1  UNL1        0.0001
     13 C         138.0689  138.6895  167.0102 C.ar    1  UNL1        0.0009
     14 C         138.9877  139.6945  167.6394 C.ar    1  UNL1        0.0114
     15 C         140.2575  140.0879  166.9446 C.ar    1  UNL1        0.0591
     16 CL        141.1763  141.0929  167.5738 Cl      1  UNL1       -0.0822
     17 O         142.9299  144.1924  162.9445 O.3     1  UNL1       -0.4550
     18 C         141.6192  144.1930  162.2149 C.3     1  UNL1        0.2053
     19 C         140.3322  144.1685  162.9850 C.ar    1  UNL1        0.0186
     20 C         140.3046  144.6232  164.4141 C.ar    1  UNL1       -0.0008
     21 C         139.0176  144.5988  165.1842 C.ar    1  UNL1       -0.0002
     22 C         137.7583  144.1195  164.5251 C.ar    1  UNL1       -0.0000
     23 C         137.7859  143.6648  163.0960 C.ar    1  UNL1       -0.0002
     24 C         139.0729  143.6893  162.3259 C.ar    1  UNL1       -0.0008
     25 N         141.6671  145.5266  159.9857 N.3     1  UNL1       -0.3179
     26 C         141.5956  144.2180  160.7153 C.3     1  UNL1        0.1140
     27 H         141.6393  145.3573  158.9803 H       1  UNL1        0.1190
     28 H         142.5363  146.0030  160.2264 H       1  UNL1        0.1190
@<TRIPOS>BOND
     1    25    26    1
     2    18    26    1
     3    18    17    1
     4    17     1    1
     5     1     2   ar
     6     2     3   ar
     7     3     4   ar
     8     4     5   ar
     9     5     6   ar
    10     6     7   ar
    11     7    10    1
    12    10    11   ar
    13    11    12   ar
    14    12    13   ar
    15    13    14   ar
    16    14    15   ar
    17    15    16    1
    18     7     8   ar
    19     8     9   ar
    20    18    19    1
    21    19    20   ar
    22    20    21   ar
    23    21    22   ar
    24    22    23   ar
    25    23    24   ar
    26     9     1   ar
    27    24    19   ar
    28     9     4   ar
    29    15    10   ar
    30    25    27    1
    31    25    28    1
