@<TRIPOS>MOLECULE
*****
 34 37 0 0 0
SMALL
GASTEIGER

@<TRIPOS>ATOM
      1 C         137.8124  142.6775  162.9898 C.3     1  UNL1        0.0887
      2 O         137.6697  143.6533  161.8595 O.3     1  UNL1       -0.3867
      3 C         137.8811  142.1417  164.3891 C.3     1  UNL1        0.0283
      4 C         138.1133  140.6780  164.6211 C.3     1  UNL1        0.0181
      5 C         138.2768  139.7503  163.4538 C.3     1  UNL1        0.0544
      6 C         138.2081  140.2861  162.0545 C.3     1  UNL1        0.0181
      7 C         137.9759  141.7498  161.8225 C.3     1  UNL1        0.0283
      8 H         137.5224  144.5429  162.2170 H       1  UNL1        0.2102
      9 N         138.5090  138.2867  163.6859 N.3     1  UNL1       -0.2948
     10 H         137.6930  137.7972  163.3187 H       1  UNL1        0.1235
     11 C         139.7161  137.6165  163.0995 C.3     1  UNL1        0.0956
     12 C         141.0888  138.1281  163.4218 C.ar    1  UNL1       -0.0055
     13 C         141.9199  138.7715  162.3517 C.ar    1  UNL1       -0.0020
     14 C         143.2926  139.2831  162.6740 C.ar    1  UNL1        0.0120
     15 C         143.8342  139.1512  164.0666 C.ar    1  UNL1        0.0682
     16 CL        145.2070  139.6628  164.3889 Cl      1  UNL1       -0.0814
     17 C         143.0032  138.5078  165.1367 C.ar    1  UNL1        0.0679
     18 CL        143.5448  138.3760  166.5294 Cl      1  UNL1       -0.0814
     19 C         141.6304  137.9962  164.8144 C.ar    1  UNL1        0.0093
     20 C         137.5993  143.9441  163.7645 C.3     1  UNL1        0.0317
     21 C         138.6925  144.4804  164.6405 C.3     1  UNL1        0.0327
     22 C         141.7692  142.0627  166.8628 C.ar    1  UNL1        0.2250
     23 C         143.1914  142.0391  166.3867 C.ar    1  UNL1        0.0593
     24 C         143.5881  142.8213  165.1699 C.ar    1  UNL1        0.0254
     25 C         142.5626  143.6272  164.4291 C.ar    1  UNL1        0.0990
     26 N         142.9593  144.4095  163.2122 N.ar    1  UNL1       -0.2400
     27 C         141.9337  145.2153  162.4715 C.ar    1  UNL1        0.1281
     28 C         140.5114  145.2390  162.9476 C.ar    1  UNL1        0.1566
     29 F         139.4859  146.0449  162.2068 F       1  UNL1       -0.2028
     30 C         140.1147  144.4568  164.1644 C.ar    1  UNL1        0.0261
     31 C         141.1404  143.6509  164.9052 C.ar    1  UNL1        0.1002
     32 N         140.7437  142.8686  166.1221 N.ar    1  UNL1       -0.2104
     33 C         140.4832  140.0804  167.9428 C.3     1  UNL1        0.2542
     34 O         141.3726  141.2805  168.0797 O.3     1  UNL1       -0.4561
@<TRIPOS>BOND
     1    33    34    1
     2    34    22    1
     3    22    23   ar
     4    23    24   ar
     5    24    25   ar
     6    25    26   ar
     7    26    27   ar
     8    27    28   ar
     9    28    29    1
    10    28    30   ar
    11    30    21    1
    12    21    20    1
    13    20     1    1
    14     1     2    1
    15     1     3    1
    16     3     4    1
    17     4     5    1
    18     5     9    1
    19     9    11    1
    20    11    12    1
    21    12    13   ar
    22    13    14   ar
    23    14    15   ar
    24    15    16    1
    25    15    17   ar
    26    17    18    1
    27    17    19   ar
    28     5     6    1
    29     6     7    1
    30    30    31   ar
    31    31    32   ar
    32    32    22   ar
    33    31    25   ar
    34     7     1    1
    35    19    12   ar
    36     2     8    1
    37     9    10    1
@<TRIPOS>MOLECULE
*****
 34 37 0 0 0
SMALL
GASTEIGER

@<TRIPOS>ATOM
      1 C         137.9506  141.1758  163.5138 C.3     1  UNL1        0.0887
      2 O         137.7547  140.3469  164.7486 O.3     1  UNL1       -0.3867
      3 C         138.1062  141.5314  162.0649 C.3     1  UNL1        0.0283
      4 C         138.3099  142.9616  161.6614 C.3     1  UNL1        0.0181
      5 C         138.3580  144.0363  162.7068 C.3     1  UNL1        0.0544
      6 C         138.2025  143.6807  164.1556 C.3     1  UNL1        0.0181
      7 C         137.9987  142.2504  164.5592 C.3     1  UNL1        0.0283
      8 H         137.6616  139.4139  164.5003 H       1  UNL1        0.2102
      9 N         138.5617  145.4665  162.3032 N.3     1  UNL1       -0.2948
     10 H         138.3165  146.0383  163.1115 H       1  UNL1        0.1235
     11 C         139.9105  145.9298  161.8383 C.3     1  UNL1        0.0956
     12 C         141.1422  145.1718  162.2361 C.ar    1  UNL1       -0.0055
     13 C         141.6717  145.2820  163.6351 C.ar    1  UNL1       -0.0020
     14 C         142.9034  144.5240  164.0329 C.ar    1  UNL1        0.0120
     15 C         143.6056  143.6556  163.0314 C.ar    1  UNL1        0.0682
     16 CL        144.8374  142.8975  163.4292 Cl      1  UNL1       -0.0814
     17 C         143.0762  143.5453  161.6324 C.ar    1  UNL1        0.0679
     18 CL        143.7784  142.6770  160.6310 Cl      1  UNL1       -0.0814
     19 C         141.8444  144.3034  161.2346 C.ar    1  UNL1        0.0093
     20 C         137.8344  139.8133  162.8972 C.3     1  UNL1        0.0317
     21 C         138.5779  138.6546  163.4929 C.3     1  UNL1        0.0327
     22 C         141.5916  139.4738  166.7327 C.ar    1  UNL1        0.2250
     23 C         143.0556  139.3002  166.4564 C.ar    1  UNL1        0.0593
     24 C         143.5151  138.8534  165.1002 C.ar    1  UNL1        0.0254
     25 C         142.5106  138.5803  164.0203 C.ar    1  UNL1        0.0990
     26 N         142.9701  138.1336  162.6641 N.ar    1  UNL1       -0.2400
     27 C         141.9655  137.8605  161.5842 C.ar    1  UNL1        0.1281
     28 C         140.5014  138.0342  161.8604 C.ar    1  UNL1        0.1566
     29 F         139.4968  137.7611  160.7805 F       1  UNL1       -0.2028
     30 C         140.0419  138.4809  163.2166 C.ar    1  UNL1        0.0261
     31 C         141.0465  138.7540  164.2966 C.ar    1  UNL1        0.1002
     32 N         140.5870  139.2007  165.6528 N.ar    1  UNL1       -0.2104
     33 C         139.6732  140.1550  168.3469 C.3     1  UNL1        0.2542
     34 O         141.1321  139.9206  168.0889 O.3     1  UNL1       -0.4561
@<TRIPOS>BOND
     1    33    34    1
     2    34    22    1
     3    22    23   ar
     4    23    24   ar
     5    24    25   ar
     6    25    26   ar
     7    26    27   ar
     8    27    28   ar
     9    28    29    1
    10    28    30   ar
    11    30    21    1
    12    21    20    1
    13    20     1    1
    14     1     2    1
    15     1     3    1
    16     3     4    1
    17     4     5    1
    18     5     9    1
    19     9    11    1
    20    11    12    1
    21    12    13   ar
    22    13    14   ar
    23    14    15   ar
    24    15    16    1
    25    15    17   ar
    26    17    18    1
    27    17    19   ar
    28     5     6    1
    29     6     7    1
    30    30    31   ar
    31    31    32   ar
    32    32    22   ar
    33    31    25   ar
    34     7     1    1
    35    19    12   ar
    36     2     8    1
    37     9    10    1
@<TRIPOS>MOLECULE
*****
 34 37 0 0 0
SMALL
GASTEIGER

@<TRIPOS>ATOM
      1 C         137.9711  142.9099  163.2367 C.3     1  UNL1        0.0887
      2 O         137.9849  144.2379  162.5393 O.3     1  UNL1       -0.3867
      3 C         137.9538  141.9006  164.3461 C.3     1  UNL1        0.0283
      4 C         137.9515  140.4350  164.0268 C.3     1  UNL1        0.0181
      5 C         137.9664  139.9787  162.5979 C.3     1  UNL1        0.0544
      6 C         137.9836  140.9880  161.4885 C.3     1  UNL1        0.0181
      7 C         137.9860  142.4536  161.8078 C.3     1  UNL1        0.0283
      8 H         137.9801  144.9493  163.1986 H       1  UNL1        0.2102
      9 N         137.9640  138.5131  162.2786 N.3     1  UNL1       -0.2948
     10 H         138.1270  138.4301  161.2751 H       1  UNL1        0.1235
     11 C         138.9414  137.5969  162.9533 C.3     1  UNL1        0.0956
     12 C         140.3673  138.0249  163.1364 C.ar    1  UNL1       -0.0055
     13 C         141.1741  138.4718  161.9535 C.ar    1  UNL1       -0.0020
     14 C         142.6000  138.8998  162.1367 C.ar    1  UNL1        0.0120
     15 C         143.2191  138.8808  163.5029 C.ar    1  UNL1        0.0682
     16 CL        144.6451  139.3088  163.6860 Cl      1  UNL1       -0.0814
     17 C         142.4124  138.4339  164.6857 C.ar    1  UNL1        0.0679
     18 CL        143.0315  138.4149  166.0519 Cl      1  UNL1       -0.0814
     19 C         140.9864  138.0059  164.5026 C.ar    1  UNL1        0.0093
     20 C         137.9610  143.8273  164.4233 C.3     1  UNL1        0.0317
     21 C         139.2295  144.4938  164.8669 C.3     1  UNL1        0.0327
     22 C         142.0705  144.2413  161.3863 C.ar    1  UNL1        0.2250
     23 C         143.3348  143.4431  161.5065 C.ar    1  UNL1        0.0593
     24 C         143.6520  142.7291  162.7869 C.ar    1  UNL1        0.0254
     25 C         142.7051  142.8132  163.9471 C.ar    1  UNL1        0.0990
     26 N         143.0223  142.0991  165.2275 N.ar    1  UNL1       -0.2400
     27 C         142.0754  142.1833  166.3877 C.ar    1  UNL1        0.1281
     28 C         140.8110  142.9815  166.2675 C.ar    1  UNL1        0.1566
     29 F         139.8641  143.0657  167.4277 F       1  UNL1       -0.2028
     30 C         140.4938  143.6956  164.9871 C.ar    1  UNL1        0.0261
     31 C         141.4408  143.6114  163.8269 C.ar    1  UNL1        0.1002
     32 N         141.1235  144.3255  162.5465 N.ar    1  UNL1       -0.2104
     33 C         140.3852  145.5303  159.8868 C.3     1  UNL1        0.2542
     34 O         141.7532  144.9554  160.1059 O.3     1  UNL1       -0.4561
@<TRIPOS>BOND
     1    33    34    1
     2    34    22    1
     3    22    23   ar
     4    23    24   ar
     5    24    25   ar
     6    25    26   ar
     7    26    27   ar
     8    27    28   ar
     9    28    29    1
    10    28    30   ar
    11    30    21    1
    12    21    20    1
    13    20     1    1
    14     1     2    1
    15     1     3    1
    16     3     4    1
    17     4     5    1
    18     5     9    1
    19     9    11    1
    20    11    12    1
    21    12    13   ar
    22    13    14   ar
    23    14    15   ar
    24    15    16    1
    25    15    17   ar
    26    17    18    1
    27    17    19   ar
    28     5     6    1
    29     6     7    1
    30    30    31   ar
    31    31    32   ar
    32    32    22   ar
    33    31    25   ar
    34     7     1    1
    35    19    12   ar
    36     2     8    1
    37     9    10    1
@<TRIPOS>MOLECULE
*****
 34 37 0 0 0
SMALL
GASTEIGER

@<TRIPOS>ATOM
      1 C         144.1542  143.2335  163.4009 C.3     1  UNL1        0.0887
      2 O         144.5456  144.0371  164.6055 O.3     1  UNL1       -0.3867
      3 C         143.5478  142.8880  162.0732 C.3     1  UNL1        0.0283
      4 C         143.6965  141.5023  161.5185 C.3     1  UNL1        0.0181
      5 C         144.4517  140.4621  162.2915 C.3     1  UNL1        0.0544
      6 C         145.0581  140.8075  163.6193 C.3     1  UNL1        0.0181
      7 C         144.9094  142.1932  164.1740 C.3     1  UNL1        0.0283
      8 H         144.2045  144.9408  164.5161 H       1  UNL1        0.2102
      9 N         144.6004  139.0764  161.7368 N.3     1  UNL1       -0.2948
     10 H         145.0800  138.5244  162.4480 H       1  UNL1        0.1235
     11 C         143.3852  138.2968  161.3303 C.3     1  UNL1        0.0956
     12 C         142.2454  138.1295  162.2909 C.ar    1  UNL1       -0.0055
     13 C         142.5155  138.0053  163.7611 C.ar    1  UNL1       -0.0020
     14 C         141.3757  137.8380  164.7217 C.ar    1  UNL1        0.0120
     15 C         139.9656  137.7949  164.2120 C.ar    1  UNL1        0.0682
     16 CL        138.8257  137.6275  165.1726 Cl      1  UNL1       -0.0814
     17 C         139.6953  137.9190  162.7419 C.ar    1  UNL1        0.0679
     18 CL        138.2852  137.8759  162.2321 Cl      1  UNL1       -0.0814
     19 C         140.8352  138.0864  161.7812 C.ar    1  UNL1        0.0093
     20 C         143.5350  144.5528  163.0462 C.3     1  UNL1        0.0317
     21 C         142.4428  145.1230  163.9019 C.3     1  UNL1        0.0327
     22 C         141.4858  141.5904  166.5201 C.ar    1  UNL1        0.2250
     23 C         140.1145  140.9835  166.4889 C.ar    1  UNL1        0.0593
     24 C         139.0621  141.5541  165.5851 C.ar    1  UNL1        0.0254
     25 C         139.3811  142.7316  164.7124 C.ar    1  UNL1        0.0990
     26 N         138.3287  143.3022  163.8085 N.ar    1  UNL1       -0.2400
     27 C         138.6477  144.4797  162.9358 C.ar    1  UNL1        0.1281
     28 C         140.0191  145.0867  162.9669 C.ar    1  UNL1        0.1566
     29 F         140.3381  146.2642  162.0942 F       1  UNL1       -0.2028
     30 C         141.0715  144.5161  163.8708 C.ar    1  UNL1        0.0261
     31 C         140.7524  143.3385  164.7435 C.ar    1  UNL1        0.1002
     32 N         141.8048  142.7679  165.6473 N.ar    1  UNL1       -0.2104
     33 C         142.5256  139.5581  167.7605 C.3     1  UNL1        0.2542
     34 O         142.5382  141.0198  167.4239 O.3     1  UNL1       -0.4561
@<TRIPOS>BOND
     1    33    34    1
     2    34    22    1
     3    22    23   ar
     4    23    24   ar
     5    24    25   ar
     6    25    26   ar
     7    26    27   ar
     8    27    28   ar
     9    28    29    1
    10    28    30   ar
    11    30    21    1
    12    21    20    1
    13    20     1    1
    14     1     2    1
    15     1     3    1
    16     3     4    1
    17     4     5    1
    18     5     9    1
    19     9    11    1
    20    11    12    1
    21    12    13   ar
    22    13    14   ar
    23    14    15   ar
    24    15    16    1
    25    15    17   ar
    26    17    18    1
    27    17    19   ar
    28     5     6    1
    29     6     7    1
    30    30    31   ar
    31    31    32   ar
    32    32    22   ar
    33    31    25   ar
    34     7     1    1
    35    19    12   ar
    36     2     8    1
    37     9    10    1
@<TRIPOS>MOLECULE
*****
 34 37 0 0 0
SMALL
GASTEIGER

@<TRIPOS>ATOM
      1 C         143.0306  143.9101  162.5943 C.3     1  UNL1        0.0887
      2 O         144.1218  143.3341  161.7413 O.3     1  UNL1       -0.3867
      3 C         142.3341  144.4947  163.7872 C.3     1  UNL1        0.0283
      4 C         140.8802  144.8543  163.7051 C.3     1  UNL1        0.0181
      5 C         140.1228  144.6294  162.4300 C.3     1  UNL1        0.0544
      6 C         140.8193  144.0448  161.2371 C.3     1  UNL1        0.0181
      7 C         142.2732  143.6851  161.3192 C.3     1  UNL1        0.0283
      8 H         144.9432  143.2873  162.2552 H       1  UNL1        0.2102
      9 N         138.6689  144.9890  162.3479 N.3     1  UNL1       -0.2948
     10 H         138.4051  144.9262  161.3646 H       1  UNL1        0.1235
     11 C         137.6555  144.1968  163.1195 C.3     1  UNL1        0.0956
     12 C         137.9170  142.7552  163.4409 C.ar    1  UNL1       -0.0055
     13 C         138.4072  142.3676  164.8045 C.ar    1  UNL1       -0.0020
     14 C         138.6687  140.9260  165.1258 C.ar    1  UNL1        0.0120
     15 C         138.4399  139.8718  164.0834 C.ar    1  UNL1        0.0682
     16 CL        138.7014  138.4301  164.4048 Cl      1  UNL1       -0.0814
     17 C         137.9497  140.2593  162.7199 C.ar    1  UNL1        0.0679
     18 CL        137.7208  139.2052  161.6775 Cl      1  UNL1       -0.0814
     19 C         137.6882  141.7010  162.3985 C.ar    1  UNL1        0.0093
     20 C         144.1669  143.9350  163.5732 C.3     1  UNL1        0.0317
     21 C         144.7528  142.6486  164.0751 C.3     1  UNL1        0.0327
     22 C         143.6570  139.1368  161.4834 C.ar    1  UNL1        0.2250
     23 C         142.7582  138.0616  162.0182 C.ar    1  UNL1        0.0593
     24 C         142.2247  138.1570  163.4169 C.ar    1  UNL1        0.0254
     25 C         142.5899  139.3275  164.2808 C.ar    1  UNL1        0.0990
     26 N         142.0564  139.4228  165.6794 N.ar    1  UNL1       -0.2400
     27 C         142.4217  140.5934  166.5433 C.ar    1  UNL1        0.1281
     28 C         143.3205  141.6687  166.0086 C.ar    1  UNL1        0.1566
     29 F         143.6858  142.8392  166.8725 F       1  UNL1       -0.2028
     30 C         143.8540  141.5734  164.6099 C.ar    1  UNL1        0.0261
     31 C         143.4887  140.4027  163.7460 C.ar    1  UNL1        0.1002
     32 N         144.0222  140.3074  162.3473 N.ar    1  UNL1       -0.2104
     33 C         143.7809  140.0526  159.0553 C.3     1  UNL1        0.2542
     34 O         144.1905  139.0415  160.0848 O.3     1  UNL1       -0.4561
@<TRIPOS>BOND
     1    33    34    1
     2    34    22    1
     3    22    23   ar
     4    23    24   ar
     5    24    25   ar
     6    25    26   ar
     7    26    27   ar
     8    27    28   ar
     9    28    29    1
    10    28    30   ar
    11    30    21    1
    12    21    20    1
    13    20     1    1
    14     1     2    1
    15     1     3    1
    16     3     4    1
    17     4     5    1
    18     5     9    1
    19     9    11    1
    20    11    12    1
    21    12    13   ar
    22    13    14   ar
    23    14    15   ar
    24    15    16    1
    25    15    17   ar
    26    17    18    1
    27    17    19   ar
    28     5     6    1
    29     6     7    1
    30    30    31   ar
    31    31    32   ar
    32    32    22   ar
    33    31    25   ar
    34     7     1    1
    35    19    12   ar
    36     2     8    1
    37     9    10    1
@<TRIPOS>MOLECULE
*****
 34 37 0 0 0
SMALL
GASTEIGER

@<TRIPOS>ATOM
      1 C         143.0631  144.0681  162.9680 C.3     1  UNL1        0.0887
      2 O         144.1127  144.4103  163.9835 O.3     1  UNL1       -0.3867
      3 C         142.4280  143.4974  161.7348 C.3     1  UNL1        0.0283
      4 C         140.9640  143.7033  161.4812 C.3     1  UNL1        0.0181
      5 C         140.1351  144.4801  162.4609 C.3     1  UNL1        0.0544
      6 C         140.7703  145.0508  163.6941 C.3     1  UNL1        0.0181
      7 C         142.2343  144.8448  163.9477 C.3     1  UNL1        0.0283
      8 H         144.9649  144.0400  163.7050 H       1  UNL1        0.2102
      9 N         138.6712  144.6861  162.2073 N.3     1  UNL1       -0.2948
     10 H         138.5070  144.4569  161.2270 H       1  UNL1        0.1235
     11 C         137.6569  143.9225  163.0061 C.3     1  UNL1        0.0956
     12 C         137.9390  142.5092  163.4219 C.ar    1  UNL1       -0.0055
     13 C         138.4614  142.2224  164.7984 C.ar    1  UNL1       -0.0020
     14 C         138.7436  140.8091  165.2142 C.ar    1  UNL1        0.0120
     15 C         138.5033  139.6825  164.2533 C.ar    1  UNL1        0.0682
     16 CL        138.7855  138.2691  164.6692 Cl      1  UNL1       -0.0814
     17 C         137.9809  139.9692  162.8769 C.ar    1  UNL1        0.0679
     18 CL        137.7407  138.8427  161.9160 Cl      1  UNL1       -0.0814
     19 C         137.6988  141.3826  162.4611 C.ar    1  UNL1        0.0093
     20 C         144.2564  143.4102  162.3410 C.3     1  UNL1        0.0317
     21 C         144.8961  142.2271  163.0053 C.3     1  UNL1        0.0327
     22 C         143.0938  141.6559  167.0889 C.ar    1  UNL1        0.2250
     23 C         142.2800  140.4312  167.3848 C.ar    1  UNL1        0.0593
     24 C         142.0669  139.3968  166.3196 C.ar    1  UNL1        0.0254
     25 C         142.6676  139.5872  164.9584 C.ar    1  UNL1        0.0990
     26 N         142.4546  138.5528  163.8932 N.ar    1  UNL1       -0.2400
     27 C         143.0553  138.7432  162.5321 C.ar    1  UNL1        0.1281
     28 C         143.8692  139.9680  162.2360 C.ar    1  UNL1        0.1566
     29 F         144.4699  140.1584  160.8749 F       1  UNL1       -0.2028
     30 C         144.0822  141.0024  163.3013 C.ar    1  UNL1        0.0261
     31 C         143.4814  140.8120  164.6625 C.ar    1  UNL1        0.1002
     32 N         143.6945  141.8463  165.7277 N.ar    1  UNL1       -0.2104
     33 C         143.5223  142.2680  169.5772 C.3     1  UNL1        0.2542
     34 O         143.3069  142.6903  168.1541 O.3     1  UNL1       -0.4561
@<TRIPOS>BOND
     1    33    34    1
     2    34    22    1
     3    22    23   ar
     4    23    24   ar
     5    24    25   ar
     6    25    26   ar
     7    26    27   ar
     8    27    28   ar
     9    28    29    1
    10    28    30   ar
    11    30    21    1
    12    21    20    1
    13    20     1    1
    14     1     2    1
    15     1     3    1
    16     3     4    1
    17     4     5    1
    18     5     9    1
    19     9    11    1
    20    11    12    1
    21    12    13   ar
    22    13    14   ar
    23    14    15   ar
    24    15    16    1
    25    15    17   ar
    26    17    18    1
    27    17    19   ar
    28     5     6    1
    29     6     7    1
    30    30    31   ar
    31    31    32   ar
    32    32    22   ar
    33    31    25   ar
    34     7     1    1
    35    19    12   ar
    36     2     8    1
    37     9    10    1
@<TRIPOS>MOLECULE
*****
 34 37 0 0 0
SMALL
GASTEIGER

@<TRIPOS>ATOM
      1 C         144.9646  140.9942  162.7513 C.3     1  UNL1        0.0887
      2 O         145.6713  142.2071  162.2223 O.3     1  UNL1       -0.3867
      3 C         144.4998  139.9413  163.7131 C.3     1  UNL1        0.0283
      4 C         143.5842  138.8493  163.2448 C.3     1  UNL1        0.0181
      5 C         143.1334  138.8104  161.8146 C.3     1  UNL1        0.0544
      6 C         143.5982  139.8634  160.8528 C.3     1  UNL1        0.0181
      7 C         144.5139  140.9553  161.3211 C.3     1  UNL1        0.0283
      8 H         146.1786  142.6230  162.9369 H       1  UNL1        0.2102
      9 N         142.2178  137.7185  161.3463 N.3     1  UNL1       -0.2948
     10 H         142.3940  136.9103  161.9430 H       1  UNL1        0.1235
     11 C         140.7337  137.9359  161.3389 C.3     1  UNL1        0.0956
     12 C         140.0159  138.2546  162.6168 C.ar    1  UNL1       -0.0055
     13 C         140.0252  137.2697  163.7481 C.ar    1  UNL1       -0.0020
     14 C         139.3074  137.5884  165.0260 C.ar    1  UNL1        0.0120
     15 C         138.5802  138.8922  165.1726 C.ar    1  UNL1        0.0682
     16 CL        137.8624  139.2109  166.4506 Cl      1  UNL1       -0.0814
     17 C         138.5708  139.8771  164.0414 C.ar    1  UNL1        0.0679
     18 CL        137.8436  141.1809  164.1880 Cl      1  UNL1       -0.0814
     19 C         139.2887  139.5584  162.7634 C.ar    1  UNL1        0.0093
     20 C         145.6608  141.4543  163.9977 C.3     1  UNL1        0.0317
     21 C         145.2002  142.6981  164.6985 C.3     1  UNL1        0.0327
     22 C         142.3908  140.5389  167.4724 C.ar    1  UNL1        0.2250
     23 C         140.9336  140.8940  167.4897 C.ar    1  UNL1        0.0593
     24 C         140.4128  141.9689  166.5823 C.ar    1  UNL1        0.0254
     25 C         141.3492  142.6887  165.6576 C.ar    1  UNL1        0.0990
     26 N         140.8284  143.7636  164.7502 N.ar    1  UNL1       -0.2400
     27 C         141.7649  144.4833  163.8256 C.ar    1  UNL1        0.1281
     28 C         143.2222  144.1281  163.8083 C.ar    1  UNL1        0.1566
     29 F         144.1586  144.8479  162.8836 F       1  UNL1       -0.2028
     30 C         143.7429  143.0532  164.7157 C.ar    1  UNL1        0.0261
     31 C         142.8064  142.3335  165.6404 C.ar    1  UNL1        0.1002
     32 N         143.3272  141.2586  166.5478 N.ar    1  UNL1       -0.2104
     33 C         142.4241  139.3764  169.7957 C.3     1  UNL1        0.2542
     34 O         142.9115  139.4640  168.3799 O.3     1  UNL1       -0.4561
@<TRIPOS>BOND
     1    33    34    1
     2    34    22    1
     3    22    23   ar
     4    23    24   ar
     5    24    25   ar
     6    25    26   ar
     7    26    27   ar
     8    27    28   ar
     9    28    29    1
    10    28    30   ar
    11    30    21    1
    12    21    20    1
    13    20     1    1
    14     1     2    1
    15     1     3    1
    16     3     4    1
    17     4     5    1
    18     5     9    1
    19     9    11    1
    20    11    12    1
    21    12    13   ar
    22    13    14   ar
    23    14    15   ar
    24    15    16    1
    25    15    17   ar
    26    17    18    1
    27    17    19   ar
    28     5     6    1
    29     6     7    1
    30    30    31   ar
    31    31    32   ar
    32    32    22   ar
    33    31    25   ar
    34     7     1    1
    35    19    12   ar
    36     2     8    1
    37     9    10    1
@<TRIPOS>MOLECULE
*****
 34 37 0 0 0
SMALL
GASTEIGER

@<TRIPOS>ATOM
      1 C         143.6204  143.8079  163.2987 C.3     1  UNL1        0.0887
      2 O         143.9571  145.1037  162.6222 O.3     1  UNL1       -0.3867
      3 C         142.9810  142.8376  164.2471 C.3     1  UNL1        0.0283
      4 C         143.3301  141.3804  164.1777 C.3     1  UNL1        0.0181
      5 C         144.3186  140.8937  163.1599 C.3     1  UNL1        0.0544
      6 C         144.9580  141.8640  162.2115 C.3     1  UNL1        0.0181
      7 C         144.6089  143.3212  162.2809 C.3     1  UNL1        0.0283
      8 H         143.4539  145.8237  163.0337 H       1  UNL1        0.2102
      9 N         144.6677  139.4365  163.0905 N.3     1  UNL1       -0.2948
     10 H         144.4566  139.0393  164.0059 H       1  UNL1        0.1235
     11 C         144.0069  138.5546  162.0729 C.3     1  UNL1        0.0956
     12 C         142.5130  138.4212  162.0530 C.ar    1  UNL1       -0.0055
     13 C         141.8120  137.6737  163.1484 C.ar    1  UNL1       -0.0020
     14 C         140.3182  137.5403  163.1285 C.ar    1  UNL1        0.0120
     15 C         139.5252  138.1544  162.0130 C.ar    1  UNL1        0.0682
     16 CL        138.0312  138.0210  161.9931 Cl      1  UNL1       -0.0814
     17 C         140.2261  138.9018  160.9176 C.ar    1  UNL1        0.0679
     18 CL        139.4332  139.5159  159.8022 Cl      1  UNL1       -0.0814
     19 C         141.7201  139.0353  160.9375 C.ar    1  UNL1        0.0093
     20 C         142.7488  144.7447  164.0816 C.3     1  UNL1        0.0317
     21 C         141.6931  145.5483  163.3817 C.3     1  UNL1        0.0327
     22 C         141.8036  144.0097  159.1544 C.ar    1  UNL1        0.2250
     23 C         140.6017  143.3253  158.5738 C.ar    1  UNL1        0.0593
     24 C         139.3631  143.1537  159.4022 C.ar    1  UNL1        0.0254
     25 C         139.3263  143.6666  160.8113 C.ar    1  UNL1        0.0990
     26 N         138.0876  143.4951  161.6398 N.ar    1  UNL1       -0.2400
     27 C         138.0508  144.0080  163.0488 C.ar    1  UNL1        0.1281
     28 C         139.2527  144.6924  163.6295 C.ar    1  UNL1        0.1566
     29 F         139.2158  145.2053  165.0386 F       1  UNL1       -0.2028
     30 C         140.4913  144.8639  162.8011 C.ar    1  UNL1        0.0261
     31 C         140.5281  144.3510  161.3919 C.ar    1  UNL1        0.1002
     32 N         141.7667  144.5225  160.5635 N.ar    1  UNL1       -0.2104
     33 C         143.3679  143.1887  157.2494 C.3     1  UNL1        0.2542
     34 O         143.0422  144.1812  158.3259 O.3     1  UNL1       -0.4561
@<TRIPOS>BOND
     1    33    34    1
     2    34    22    1
     3    22    23   ar
     4    23    24   ar
     5    24    25   ar
     6    25    26   ar
     7    26    27   ar
     8    27    28   ar
     9    28    29    1
    10    28    30   ar
    11    30    21    1
    12    21    20    1
    13    20     1    1
    14     1     2    1
    15     1     3    1
    16     3     4    1
    17     4     5    1
    18     5     9    1
    19     9    11    1
    20    11    12    1
    21    12    13   ar
    22    13    14   ar
    23    14    15   ar
    24    15    16    1
    25    15    17   ar
    26    17    18    1
    27    17    19   ar
    28     5     6    1
    29     6     7    1
    30    30    31   ar
    31    31    32   ar
    32    32    22   ar
    33    31    25   ar
    34     7     1    1
    35    19    12   ar
    36     2     8    1
    37     9    10    1
@<TRIPOS>MOLECULE
*****
 34 37 0 0 0
SMALL
GASTEIGER

@<TRIPOS>ATOM
      1 C         139.3696  138.4393  163.5297 C.3     1  UNL1        0.0887
      2 O         137.9978  138.9287  163.1707 O.3     1  UNL1       -0.3867
      3 C         140.5117  137.9262  164.3557 C.3     1  UNL1        0.0283
      4 C         141.8385  137.6514  163.7123 C.3     1  UNL1        0.0181
      5 C         142.0232  137.8897  162.2429 C.3     1  UNL1        0.0544
      6 C         140.8811  138.4027  161.4169 C.3     1  UNL1        0.0181
      7 C         139.5543  138.6776  162.0603 C.3     1  UNL1        0.0283
      8 H         137.4403  138.9393  163.9645 H       1  UNL1        0.2102
      9 N         143.3500  137.6148  161.5995 N.3     1  UNL1       -0.2948
     10 H         143.1579  137.1218  160.7274 H       1  UNL1        0.1235
     11 C         144.2692  138.7509  161.2612 C.3     1  UNL1        0.0956
     12 C         144.2493  140.0031  162.0867 C.ar    1  UNL1       -0.0055
     13 C         144.8042  139.9919  163.4802 C.ar    1  UNL1       -0.0020
     14 C         144.7843  141.2441  164.3056 C.ar    1  UNL1        0.0120
     15 C         144.2094  142.5078  163.7374 C.ar    1  UNL1        0.0682
     16 CL        144.1895  143.7601  164.5629 Cl      1  UNL1       -0.0814
     17 C         143.6546  142.5191  162.3440 C.ar    1  UNL1        0.0679
     18 CL        143.0797  143.7828  161.7758 Cl      1  UNL1       -0.0814
     19 C         143.6745  141.2668  161.5185 C.ar    1  UNL1        0.0093
     20 C         138.7085  138.3710  164.8744 C.3     1  UNL1        0.0317
     21 C         138.1447  139.6138  165.4970 C.3     1  UNL1        0.0327
     22 C         138.8422  143.1384  162.7876 C.ar    1  UNL1        0.2250
     23 C         139.7596  144.2446  163.2172 C.ar    1  UNL1        0.0593
     24 C         140.4446  144.1759  164.5499 C.ar    1  UNL1        0.0254
     25 C         140.2121  143.0011  165.4530 C.ar    1  UNL1        0.0990
     26 N         140.8971  142.9325  166.7858 N.ar    1  UNL1       -0.2400
     27 C         140.6646  141.7577  167.6889 C.ar    1  UNL1        0.1281
     28 C         139.7471  140.6514  167.2593 C.ar    1  UNL1        0.1566
     29 F         139.5146  139.4766  168.1625 F       1  UNL1       -0.2028
     30 C         139.0621  140.7200  165.9266 C.ar    1  UNL1        0.0261
     31 C         139.2947  141.8949  165.0235 C.ar    1  UNL1        0.1002
     32 N         138.6097  141.9636  163.6908 N.ar    1  UNL1       -0.2104
     33 C         138.3317  142.0947  160.4638 C.3     1  UNL1        0.2542
     34 O         138.1572  143.2070  161.4549 O.3     1  UNL1       -0.4561
@<TRIPOS>BOND
     1    33    34    1
     2    34    22    1
     3    22    23   ar
     4    23    24   ar
     5    24    25   ar
     6    25    26   ar
     7    26    27   ar
     8    27    28   ar
     9    28    29    1
    10    28    30   ar
    11    30    21    1
    12    21    20    1
    13    20     1    1
    14     1     2    1
    15     1     3    1
    16     3     4    1
    17     4     5    1
    18     5     9    1
    19     9    11    1
    20    11    12    1
    21    12    13   ar
    22    13    14   ar
    23    14    15   ar
    24    15    16    1
    25    15    17   ar
    26    17    18    1
    27    17    19   ar
    28     5     6    1
    29     6     7    1
    30    30    31   ar
    31    31    32   ar
    32    32    22   ar
    33    31    25   ar
    34     7     1    1
    35    19    12   ar
    36     2     8    1
    37     9    10    1
