@<TRIPOS>MOLECULE
*****
 20 22 0 0 0
SMALL
GASTEIGER

@<TRIPOS>ATOM
      1 C         141.0916  141.9321  168.3764 C.ar    1  UNL1       -0.0227
      2 C         141.2372  142.2888  166.9268 C.ar    1  UNL1       -0.0028
      3 C         140.4194  141.5736  165.8926 C.ar    1  UNL1        0.0172
      4 C         139.4559  140.5017  166.3079 C.ar    1  UNL1        0.0640
      5 C         139.3103  140.1449  167.7576 C.ar    1  UNL1        0.0173
      6 C         138.2872  139.0533  167.8658 C.ar    1  UNL1        0.0204
      7 C         137.8005  138.7354  166.4830 C.ar    1  UNL1        0.0801
      8 N         138.5228  139.6306  165.5202 N.ar    1  UNL1       -0.3049
      9 C         140.1281  140.8601  168.7918 C.ar    1  UNL1       -0.0028
     10 C         138.3436  139.6510  164.0311 C.ar    1  UNL1        0.0642
     11 C         138.7166  138.4496  163.2142 C.ar    1  UNL1        0.0198
     12 C         138.5373  138.4700  161.7251 C.ar    1  UNL1        0.0311
     13 C         137.9850  139.6919  161.0529 C.ar    1  UNL1        0.1402
     14 F         137.8058  139.7124  159.5638 F       1  UNL1       -0.2042
     15 C         137.6120  140.8934  161.8698 C.ar    1  UNL1        0.0311
     16 C         137.7913  140.8729  163.3589 C.ar    1  UNL1        0.0198
     17 C         140.7380  143.5291  169.7271 C.3     1  UNL1        0.0044
     18 C         141.9094  142.6473  169.4106 C.3     1  UNL1        0.0189
     19 C         143.0809  141.7654  169.0941 C.3     1  UNL1        0.0044
     20 C         142.7273  143.3625  170.4449 C.3     1  UNL1        0.0044
@<TRIPOS>BOND
     1    17    18    1
     2    18    19    1
     3    18    20    1
     4    18     1    1
     5     1     2   ar
     6     2     3   ar
     7     3     4   ar
     8     4     5   ar
     9     5     6   ar
    10     6     7   ar
    11     7     8   ar
    12     8    10    1
    13    10    11   ar
    14    11    12   ar
    15    12    13   ar
    16    13    14    1
    17    13    15   ar
    18    15    16   ar
    19     5     9   ar
    20     9     1   ar
    21     8     4   ar
    22    16    10   ar
@<TRIPOS>MOLECULE
*****
 20 22 0 0 0
SMALL
GASTEIGER

@<TRIPOS>ATOM
      1 C         141.4800  141.4599  167.5336 C.ar    1  UNL1       -0.0227
      2 C         140.3803  141.8075  166.5747 C.ar    1  UNL1       -0.0028
      3 C         140.6852  142.6037  165.3405 C.ar    1  UNL1        0.0172
      4 C         142.0898  143.0523  165.0653 C.ar    1  UNL1        0.0640
      5 C         143.1895  142.7046  166.0243 C.ar    1  UNL1        0.0173
      6 C         144.4682  143.2807  165.4919 C.ar    1  UNL1        0.0204
      7 C         144.1586  143.9844  164.2039 C.ar    1  UNL1        0.0801
      8 N         142.6887  143.8432  163.9403 N.ar    1  UNL1       -0.3049
      9 C         142.8847  141.9084  167.2584 C.ar    1  UNL1       -0.0028
     10 C         141.9477  144.3959  162.7590 C.ar    1  UNL1        0.0642
     11 C         140.8237  145.3673  162.9662 C.ar    1  UNL1        0.0198
     12 C         140.0828  145.9200  161.7848 C.ar    1  UNL1        0.0311
     13 C         140.4657  145.5013  160.3963 C.ar    1  UNL1        0.1402
     14 F         139.7248  146.0540  159.2150 F       1  UNL1       -0.2042
     15 C         141.5898  144.5299  160.1892 C.ar    1  UNL1        0.0311
     16 C         142.3307  143.9772  161.3705 C.ar    1  UNL1        0.0198
     17 C         142.5276  141.0030  169.3208 C.3     1  UNL1        0.0044
     18 C         141.1752  140.6636  168.7678 C.3     1  UNL1        0.0189
     19 C         139.8227  140.3243  168.2147 C.3     1  UNL1        0.0044
     20 C         140.8703  139.8674  170.0019 C.3     1  UNL1        0.0044
@<TRIPOS>BOND
     1    17    18    1
     2    18    19    1
     3    18    20    1
     4    18     1    1
     5     1     2   ar
     6     2     3   ar
     7     3     4   ar
     8     4     5   ar
     9     5     6   ar
    10     6     7   ar
    11     7     8   ar
    12     8    10    1
    13    10    11   ar
    14    11    12   ar
    15    12    13   ar
    16    13    14    1
    17    13    15   ar
    18    15    16   ar
    19     5     9   ar
    20     9     1   ar
    21     8     4   ar
    22    16    10   ar
@<TRIPOS>MOLECULE
*****
 20 22 0 0 0
SMALL
GASTEIGER

@<TRIPOS>ATOM
      1 C         141.7460  141.7765  168.1324 C.ar    1  UNL1       -0.0227
      2 C         140.5921  142.2290  167.2876 C.ar    1  UNL1       -0.0028
      3 C         140.2201  141.4622  166.0533 C.ar    1  UNL1        0.0172
      4 C         141.0020  140.2429  165.6637 C.ar    1  UNL1        0.0640
      5 C         142.1559  139.7903  166.5085 C.ar    1  UNL1        0.0173
      6 C         142.7375  138.5598  165.8778 C.ar    1  UNL1        0.0204
      7 C         141.9431  138.2520  164.6433 C.ar    1  UNL1        0.0801
      8 N         140.8705  139.2921  164.5110 N.ar    1  UNL1       -0.3049
      9 C         142.5279  140.5571  167.7428 C.ar    1  UNL1       -0.0028
     10 C         139.8461  139.3682  163.4179 C.ar    1  UNL1        0.0642
     11 C         139.6746  140.6379  162.6378 C.ar    1  UNL1        0.0198
     12 C         138.6503  140.7140  161.5447 C.ar    1  UNL1        0.0311
     13 C         137.7974  139.5205  161.2315 C.ar    1  UNL1        0.1402
     14 F         136.7731  139.5966  160.1384 F       1  UNL1       -0.2042
     15 C         137.9690  138.2508  162.0116 C.ar    1  UNL1        0.0311
     16 C         138.9933  138.1747  163.1047 C.ar    1  UNL1        0.0198
     17 C         140.8285  143.3047  169.2824 C.3     1  UNL1        0.0044
     18 C         142.1181  142.5433  169.3668 C.3     1  UNL1        0.0189
     19 C         143.4077  141.7818  169.4511 C.3     1  UNL1        0.0044
     20 C         142.4901  143.3101  170.6011 C.3     1  UNL1        0.0044
@<TRIPOS>BOND
     1    17    18    1
     2    18    19    1
     3    18    20    1
     4    18     1    1
     5     1     2   ar
     6     2     3   ar
     7     3     4   ar
     8     4     5   ar
     9     5     6   ar
    10     6     7   ar
    11     7     8   ar
    12     8    10    1
    13    10    11   ar
    14    11    12   ar
    15    12    13   ar
    16    13    14    1
    17    13    15   ar
    18    15    16   ar
    19     5     9   ar
    20     9     1   ar
    21     8     4   ar
    22    16    10   ar
@<TRIPOS>MOLECULE
*****
 20 22 0 0 0
SMALL
GASTEIGER

@<TRIPOS>ATOM
      1 C         141.1616  144.2907  162.3663 C.ar    1  UNL1       -0.0227
      2 C         139.9484  143.8021  163.1006 C.ar    1  UNL1       -0.0028
      3 C         140.0956  143.1577  164.4471 C.ar    1  UNL1        0.0172
      4 C         141.4561  143.0019  165.0593 C.ar    1  UNL1        0.0640
      5 C         142.6693  143.4905  164.3250 C.ar    1  UNL1        0.0173
      6 C         143.8722  143.2021  165.1735 C.ar    1  UNL1        0.0204
      7 C         143.4023  142.5353  166.4323 C.ar    1  UNL1        0.0801
      8 N         141.9091  142.4115  166.3617 N.ar    1  UNL1       -0.3049
      9 C         142.5221  144.1349  162.9785 C.ar    1  UNL1       -0.0028
     10 C         141.0242  141.8041  167.4095 C.ar    1  UNL1        0.0642
     11 C         140.8721  142.4739  168.7430 C.ar    1  UNL1        0.0198
     12 C         139.9872  141.8664  169.7909 C.ar    1  UNL1        0.0311
     13 C         139.2544  140.5892  169.5053 C.ar    1  UNL1        0.1402
     14 F         138.3695  139.9817  170.5531 F       1  UNL1       -0.2042
     15 C         139.4065  139.9194  168.1718 C.ar    1  UNL1        0.0311
     16 C         140.2914  140.5268  167.1240 C.ar    1  UNL1        0.0198
     17 C         140.0535  145.9297  161.6009 C.3     1  UNL1        0.0044
     18 C         141.0143  144.9351  161.0198 C.3     1  UNL1        0.0189
     19 C         141.9752  143.9405  160.4388 C.3     1  UNL1        0.0044
     20 C         140.8671  145.5795  159.6733 C.3     1  UNL1        0.0044
@<TRIPOS>BOND
     1    17    18    1
     2    18    19    1
     3    18    20    1
     4    18     1    1
     5     1     2   ar
     6     2     3   ar
     7     3     4   ar
     8     4     5   ar
     9     5     6   ar
    10     6     7   ar
    11     7     8   ar
    12     8    10    1
    13    10    11   ar
    14    11    12   ar
    15    12    13   ar
    16    13    14    1
    17    13    15   ar
    18    15    16   ar
    19     5     9   ar
    20     9     1   ar
    21     8     4   ar
    22    16    10   ar
@<TRIPOS>MOLECULE
*****
 20 22 0 0 0
SMALL
GASTEIGER

@<TRIPOS>ATOM
      1 C         140.2681  140.9440  168.1277 C.ar    1  UNL1       -0.0227
      2 C         141.3478  141.2024  167.1190 C.ar    1  UNL1       -0.0028
      3 C         141.3685  140.4361  165.8296 C.ar    1  UNL1        0.0172
      4 C         140.3096  139.4115  165.5490 C.ar    1  UNL1        0.0640
      5 C         139.2299  139.1531  166.5577 C.ar    1  UNL1        0.0173
      6 C         138.3262  138.0898  166.0074 C.ar    1  UNL1        0.0204
      7 C         138.8473  137.6911  164.6586 C.ar    1  UNL1        0.0801
      8 N         140.0731  138.5079  164.3753 N.ar    1  UNL1       -0.3049
      9 C         139.2092  139.9194  167.8471 C.ar    1  UNL1       -0.0028
     10 C         140.9147  138.4342  163.1358 C.ar    1  UNL1        0.0642
     11 C         140.2781  138.5907  161.7866 C.ar    1  UNL1        0.0198
     12 C         141.1197  138.5169  160.5472 C.ar    1  UNL1        0.0311
     13 C         142.5978  138.2866  160.6568 C.ar    1  UNL1        0.1402
     14 F         143.4394  138.2129  159.4173 F       1  UNL1       -0.2042
     15 C         143.2344  138.1301  162.0060 C.ar    1  UNL1        0.0311
     16 C         142.3928  138.2039  163.2455 C.ar    1  UNL1        0.0198
     17 C         139.1989  140.7808  169.9526 C.3     1  UNL1        0.0044
     18 C         140.2474  141.7103  169.4170 C.3     1  UNL1        0.0189
     19 C         141.2959  142.6398  168.8815 C.3     1  UNL1        0.0044
     20 C         140.2267  142.4766  170.7064 C.3     1  UNL1        0.0044
@<TRIPOS>BOND
     1    17    18    1
     2    18    19    1
     3    18    20    1
     4    18     1    1
     5     1     2   ar
     6     2     3   ar
     7     3     4   ar
     8     4     5   ar
     9     5     6   ar
    10     6     7   ar
    11     7     8   ar
    12     8    10    1
    13    10    11   ar
    14    11    12   ar
    15    12    13   ar
    16    13    14    1
    17    13    15   ar
    18    15    16   ar
    19     5     9   ar
    20     9     1   ar
    21     8     4   ar
    22    16    10   ar
@<TRIPOS>MOLECULE
*****
 20 22 0 0 0
SMALL
GASTEIGER

@<TRIPOS>ATOM
      1 C         140.2537  141.2830  168.5100 C.ar    1  UNL1       -0.0227
      2 C         140.7300  142.5331  167.8316 C.ar    1  UNL1       -0.0028
      3 C         140.4129  142.7685  166.3845 C.ar    1  UNL1        0.0172
      4 C         139.6194  141.7539  165.6159 C.ar    1  UNL1        0.0640
      5 C         139.1431  140.5038  166.2943 C.ar    1  UNL1        0.0173
      6 C         138.3860  139.6895  165.2873 C.ar    1  UNL1        0.0204
      7 C         138.3945  140.4365  163.9865 C.ar    1  UNL1        0.0801
      8 N         139.1568  141.7123  164.1896 N.ar    1  UNL1       -0.3049
      9 C         139.4603  140.2683  167.7413 C.ar    1  UNL1       -0.0028
     10 C         139.4117  142.7622  163.1491 C.ar    1  UNL1        0.0642
     11 C         140.1137  142.3997  161.8741 C.ar    1  UNL1        0.0198
     12 C         140.3686  143.4496  160.8336 C.ar    1  UNL1        0.0311
     13 C         139.9215  144.8621  161.0680 C.ar    1  UNL1        0.1402
     14 F         140.1763  145.9120  160.0275 F       1  UNL1       -0.2042
     15 C         139.2194  145.2246  162.3430 C.ar    1  UNL1        0.0311
     16 C         138.9645  144.1747  163.3836 C.ar    1  UNL1        0.0198
     17 C         141.2468  139.7572  169.5989 C.3     1  UNL1        0.0044
     18 C         140.5709  141.0475  169.9570 C.3     1  UNL1        0.0189
     19 C         139.8950  142.3378  170.3151 C.3     1  UNL1        0.0044
     20 C         140.8880  140.8121  171.4041 C.3     1  UNL1        0.0044
@<TRIPOS>BOND
     1    17    18    1
     2    18    19    1
     3    18    20    1
     4    18     1    1
     5     1     2   ar
     6     2     3   ar
     7     3     4   ar
     8     4     5   ar
     9     5     6   ar
    10     6     7   ar
    11     7     8   ar
    12     8    10    1
    13    10    11   ar
    14    11    12   ar
    15    12    13   ar
    16    13    14    1
    17    13    15   ar
    18    15    16   ar
    19     5     9   ar
    20     9     1   ar
    21     8     4   ar
    22    16    10   ar
@<TRIPOS>MOLECULE
*****
 20 22 0 0 0
SMALL
GASTEIGER

@<TRIPOS>ATOM
      1 C         140.1960  141.3707  168.4569 C.ar    1  UNL1       -0.0227
      2 C         140.4239  142.4334  167.4231 C.ar    1  UNL1       -0.0028
      3 C         140.0519  142.1798  165.9922 C.ar    1  UNL1        0.0172
      4 C         139.4521  140.8636  165.5952 C.ar    1  UNL1        0.0640
      5 C         139.2242  139.8009  166.6290 C.ar    1  UNL1        0.0173
      6 C         138.6201  138.6105  165.9448 C.ar    1  UNL1        0.0204
      7 C         138.4747  138.9375  164.4881 C.ar    1  UNL1        0.0801
      8 N         138.9889  140.3300  164.2721 N.ar    1  UNL1       -0.3049
      9 C         139.5961  140.0545  168.0599 C.ar    1  UNL1       -0.0028
     10 C         139.0323  141.0606  162.9627 C.ar    1  UNL1        0.0642
     11 C         138.0215  142.1283  162.6658 C.ar    1  UNL1        0.0198
     12 C         138.0648  142.8589  161.3565 C.ar    1  UNL1        0.0311
     13 C         139.1190  142.5218  160.3441 C.ar    1  UNL1        0.1402
     14 F         139.1624  143.2524  159.0347 F       1  UNL1       -0.2042
     15 C         140.1299  141.4541  160.6410 C.ar    1  UNL1        0.0311
     16 C         140.0865  140.7235  161.9503 C.ar    1  UNL1        0.0198
     17 C         140.5566  140.1479  170.1524 C.3     1  UNL1        0.0044
     18 C         140.5679  141.6243  169.8878 C.3     1  UNL1        0.0189
     19 C         140.5793  143.1008  169.6232 C.3     1  UNL1        0.0044
     20 C         140.9399  141.8779  171.3186 C.3     1  UNL1        0.0044
@<TRIPOS>BOND
     1    17    18    1
     2    18    19    1
     3    18    20    1
     4    18     1    1
     5     1     2   ar
     6     2     3   ar
     7     3     4   ar
     8     4     5   ar
     9     5     6   ar
    10     6     7   ar
    11     7     8   ar
    12     8    10    1
    13    10    11   ar
    14    11    12   ar
    15    12    13   ar
    16    13    14    1
    17    13    15   ar
    18    15    16   ar
    19     5     9   ar
    20     9     1   ar
    21     8     4   ar
    22    16    10   ar
@<TRIPOS>MOLECULE
*****
 20 22 0 0 0
SMALL
GASTEIGER

@<TRIPOS>ATOM
      1 C         141.3776  140.2429  168.5531 C.ar    1  UNL1       -0.0227
      2 C         140.0755  140.5802  167.8893 C.ar    1  UNL1       -0.0028
      3 C         139.8508  140.2181  166.4512 C.ar    1  UNL1        0.0172
      4 C         140.9282  139.5186  165.6767 C.ar    1  UNL1        0.0640
      5 C         142.2304  139.1813  166.3405 C.ar    1  UNL1        0.0173
      6 C         143.1011  138.4941  165.3306 C.ar    1  UNL1        0.0204
      7 C         142.3370  138.4067  164.0428 C.ar    1  UNL1        0.0801
      8 N         140.9941  139.0399  164.2567 N.ar    1  UNL1       -0.3049
      9 C         142.4551  139.5435  167.7786 C.ar    1  UNL1       -0.0028
     10 C         139.9078  139.1713  163.2307 C.ar    1  UNL1        0.0642
     11 C         139.4909  137.9782  162.4228 C.ar    1  UNL1        0.0198
     12 C         138.4046  138.1096  161.3969 C.ar    1  UNL1        0.0311
     13 C         137.7352  139.4340  161.1787 C.ar    1  UNL1        0.1402
     14 F         136.6489  139.5654  160.1527 F       1  UNL1       -0.2042
     15 C         138.1521  140.6271  161.9866 C.ar    1  UNL1        0.0311
     16 C         139.2384  140.4957  163.0125 C.ar    1  UNL1        0.0198
     17 C         140.7335  141.8161  169.8220 C.3     1  UNL1        0.0044
     18 C         141.6023  140.6051  169.9912 C.3     1  UNL1        0.0189
     19 C         142.4712  139.3941  170.1604 C.3     1  UNL1        0.0044
     20 C         141.8270  140.9673  171.4294 C.3     1  UNL1        0.0044
@<TRIPOS>BOND
     1    17    18    1
     2    18    19    1
     3    18    20    1
     4    18     1    1
     5     1     2   ar
     6     2     3   ar
     7     3     4   ar
     8     4     5   ar
     9     5     6   ar
    10     6     7   ar
    11     7     8   ar
    12     8    10    1
    13    10    11   ar
    14    11    12   ar
    15    12    13   ar
    16    13    14    1
    17    13    15   ar
    18    15    16   ar
    19     5     9   ar
    20     9     1   ar
    21     8     4   ar
    22    16    10   ar
@<TRIPOS>MOLECULE
*****
 20 22 0 0 0
SMALL
GASTEIGER

@<TRIPOS>ATOM
      1 C         142.4977  141.0248  168.1908 C.ar    1  UNL1       -0.0227
      2 C         142.1841  139.8181  167.3569 C.ar    1  UNL1       -0.0028
      3 C         142.5131  139.8117  165.8934 C.ar    1  UNL1        0.0172
      4 C         143.1557  141.0119  165.2639 C.ar    1  UNL1        0.0640
      5 C         143.4693  142.2186  166.0978 C.ar    1  UNL1        0.0173
      6 C         144.0998  143.2472  165.2063 C.ar    1  UNL1        0.0204
      7 C         144.1758  142.6760  163.8214 C.ar    1  UNL1        0.0801
      8 N         143.5923  141.2946  163.8570 N.ar    1  UNL1       -0.3049
      9 C         143.1403  142.2251  167.5613 C.ar    1  UNL1       -0.0028
     10 C         143.4674  140.3599  162.6905 C.ar    1  UNL1        0.0642
     11 C         142.8148  140.8257  161.4227 C.ar    1  UNL1        0.0198
     12 C         142.6899  139.8910  160.2562 C.ar    1  UNL1        0.0311
     13 C         143.2175  138.4906  160.3574 C.ar    1  UNL1        0.1402
     14 F         143.0926  137.5559  159.1908 F       1  UNL1       -0.2042
     15 C         143.8701  138.0248  161.6251 C.ar    1  UNL1        0.0311
     16 C         143.9950  138.9595  162.7916 C.ar    1  UNL1        0.0198
     17 C         142.1979  142.5309  169.6543 C.3     1  UNL1        0.0044
     18 C         142.1687  141.0312  169.6543 C.3     1  UNL1        0.0189
     19 C         142.1395  139.5315  169.6543 C.3     1  UNL1        0.0044
     20 C         141.8397  141.0376  171.1177 C.3     1  UNL1        0.0044
@<TRIPOS>BOND
     1    17    18    1
     2    18    19    1
     3    18    20    1
     4    18     1    1
     5     1     2   ar
     6     2     3   ar
     7     3     4   ar
     8     4     5   ar
     9     5     6   ar
    10     6     7   ar
    11     7     8   ar
    12     8    10    1
    13    10    11   ar
    14    11    12   ar
    15    12    13   ar
    16    13    14    1
    17    13    15   ar
    18    15    16   ar
    19     5     9   ar
    20     9     1   ar
    21     8     4   ar
    22    16    10   ar
