@<TRIPOS>MOLECULE
*****
 36 41 0 0 0
SMALL
GASTEIGER

@<TRIPOS>ATOM
      1 C         141.5368  143.9845  159.6663 C.ar    1  UNL1        0.1219
      2 C         142.1671  142.6373  159.4725 C.ar    1  UNL1        0.0240
      3 C         142.4304  141.7550  160.6566 C.ar    1  UNL1        0.0235
      4 C         142.0634  142.2200  162.0347 C.ar    1  UNL1        0.1166
      5 N         141.4331  143.5673  162.2286 N.ar    1  UNL1       -0.2887
      6 C         141.1698  144.4495  161.0444 C.ar    1  UNL1        0.2772
      7 O         140.5395  145.7968  161.2383 O.2     1  UNL1       -0.2654
      8 C         141.0661  144.0322  163.6067 C.3     1  UNL1        0.1307
      9 C         141.3294  143.1500  164.7908 C.3     1  UNL1        0.1183
     10 N         141.9597  141.8027  164.5970 N.am    1  UNL1       -0.2726
     11 C         142.3267  141.3377  163.2189 C.2     1  UNL1        0.2651
     12 O         142.9570  139.9904  163.0250 O.2     1  UNL1       -0.2683
     13 C         139.0621  146.9354  156.0540 C.3     1  UNL1        0.0538
     14 C         140.1361  146.2231  156.8218 C.ar    1  UNL1        0.0786
     15 C         139.9339  145.3833  158.0480 C.ar    1  UNL1        0.0963
     16 N         141.2735  144.8668  158.4822 N.ar    1  UNL1       -0.2825
     17 C         142.3037  145.3875  157.5242 C.ar    1  UNL1        0.1826
     18 N         141.6007  146.2257  156.4981 N.ar    1  UNL1       -0.2280
     19 C         142.2230  140.9204  165.7811 C.3     1  UNL1        0.0980
     20 C         141.8062  141.3619  167.1527 C.3     1  UNL1        0.0434
     21 C         143.0209  142.2374  167.2401 C.3     1  UNL1        0.0098
     22 C         142.0526  142.1820  168.3843 C.3     1  UNL1        0.0425
     23 C         141.0842  142.1265  169.5285 C.3     1  UNL1        0.1335
     24 C         140.4629  142.4093  170.8642 C.3     1  UNL1        0.0436
     25 C         142.0833  143.1003  170.0797 C.3     1  UNL1        0.0436
     26 O         139.8695  141.2510  169.4412 O.3     1  UNL1       -0.4829
     27 C         139.6230  140.4309  168.2097 C.ar    1  UNL1        0.1342
     28 C         138.4082  139.5553  168.1223 C.ar    1  UNL1        0.0365
     29 C         138.1618  138.7352  166.8908 C.ar    1  UNL1        0.0069
     30 C         139.1301  138.7906  165.7466 C.ar    1  UNL1        0.0713
     31 C         140.3449  139.6662  165.8339 C.ar    1  UNL1        0.0026
     32 C         140.5913  140.4863  167.0655 C.ar    1  UNL1        0.0128
     33 C         138.8836  137.9705  164.5151 C.3     1  UNL1        0.4186
     34 F         138.6372  137.1504  163.2835 F       1  UNL1       -0.1659
     35 F         139.2984  139.1306  163.6595 F       1  UNL1       -0.1659
     36 F         138.4688  136.8104  165.3707 F       1  UNL1       -0.1659
@<TRIPOS>BOND
     1    13    14    1
     2    14    15   ar
     3    15    16   ar
     4    16     1    1
     5     1     2   ar
     6     2     3   ar
     7     3     4   ar
     8     4     5   ar
     9     5     6   ar
    10     6     7    2
    11     5     8    1
    12     8     9    1
    13     9    10    1
    14    10    19    1
    15    20    19    1
    16    20    21    1
    17    22    21    1
    18    22    23    1
    19    23    24    1
    20    23    25    1
    21    23    26    1
    22    26    27    1
    23    27    28   ar
    24    28    29   ar
    25    29    30   ar
    26    30    33    1
    27    33    34    1
    28    33    35    1
    29    33    36    1
    30    30    31   ar
    31    31    32   ar
    32    10    11   am
    33    11    12    2
    34    16    17   ar
    35    17    18   ar
    36    18    14   ar
    37     6     1   ar
    38    22    20    1
    39    32    27   ar
    40    11     4    1
    41    32    20    1
@<TRIPOS>MOLECULE
*****
 36 41 0 0 0
SMALL
GASTEIGER

@<TRIPOS>ATOM
      1 C         138.1931  141.1711  157.7715 C.ar    1  UNL1        0.1219
      2 C         138.0846  142.3237  158.7253 C.ar    1  UNL1        0.0240
      3 C         138.6858  142.2222  160.0958 C.ar    1  UNL1        0.0235
      4 C         139.3956  140.9681  160.5125 C.ar    1  UNL1        0.1166
      5 N         139.5040  139.8155  159.5586 N.ar    1  UNL1       -0.2887
      6 C         138.9028  139.9170  158.1881 C.ar    1  UNL1        0.2772
      7 O         139.0112  138.7644  157.2343 O.2     1  UNL1       -0.2654
      8 C         140.2137  138.5614  159.9753 C.3     1  UNL1        0.1307
      9 C         140.8150  138.4600  161.3458 C.3     1  UNL1        0.1183
     10 N         140.7065  139.6125  162.2996 N.am    1  UNL1       -0.2726
     11 C         139.9968  140.8666  161.8829 C.2     1  UNL1        0.2651
     12 O         139.8883  142.0192  162.8367 O.2     1  UNL1       -0.2683
     13 C         134.7427  141.0177  153.7775 C.3     1  UNL1        0.0538
     14 C         136.0059  141.2021  154.5652 C.ar    1  UNL1        0.0786
     15 C         136.1693  140.9655  156.0373 C.ar    1  UNL1        0.0963
     16 N         137.5918  141.2726  156.4010 N.ar    1  UNL1       -0.2825
     17 C         138.3074  141.6990  155.1536 C.ar    1  UNL1        0.1826
     18 N         137.3273  141.6554  154.0191 N.ar    1  UNL1       -0.2280
     19 C         141.3078  139.5110  163.6700 C.3     1  UNL1        0.0980
     20 C         142.2582  140.5666  164.1521 C.3     1  UNL1        0.0434
     21 C         143.0412  140.4431  162.8788 C.3     1  UNL1        0.0098
     22 C         143.4728  141.4190  163.9329 C.3     1  UNL1        0.0425
     23 C         143.9044  142.3949  164.9872 C.3     1  UNL1        0.1335
     24 C         144.7045  143.4559  165.6830 C.3     1  UNL1        0.0436
     25 C         144.9653  142.6399  163.9554 C.3     1  UNL1        0.0436
     26 O         143.1214  142.5184  166.2606 O.3     1  UNL1       -0.4829
     27 C         141.9067  141.6660  166.4798 C.ar    1  UNL1        0.1342
     28 C         141.1237  141.7895  167.7531 C.ar    1  UNL1        0.0365
     29 C         139.9090  140.9371  167.9724 C.ar    1  UNL1        0.0069
     30 C         139.4775  139.9612  166.9182 C.ar    1  UNL1        0.0713
     31 C         140.2605  139.8377  165.6448 C.ar    1  UNL1        0.0026
     32 C         141.4751  140.6901  165.4256 C.ar    1  UNL1        0.0128
     33 C         138.2628  139.1088  167.1374 C.3     1  UNL1        0.4186
     34 F         137.0482  138.2563  167.3566 F       1  UNL1       -0.1659
     35 F         138.2497  138.7528  165.6803 F       1  UNL1       -0.1659
     36 F         138.2760  139.4647  168.5945 F       1  UNL1       -0.1659
@<TRIPOS>BOND
     1    13    14    1
     2    14    15   ar
     3    15    16   ar
     4    16     1    1
     5     1     2   ar
     6     2     3   ar
     7     3     4   ar
     8     4     5   ar
     9     5     6   ar
    10     6     7    2
    11     5     8    1
    12     8     9    1
    13     9    10    1
    14    10    19    1
    15    20    19    1
    16    20    21    1
    17    22    21    1
    18    22    23    1
    19    23    24    1
    20    23    25    1
    21    23    26    1
    22    26    27    1
    23    27    28   ar
    24    28    29   ar
    25    29    30   ar
    26    30    33    1
    27    33    34    1
    28    33    35    1
    29    33    36    1
    30    30    31   ar
    31    31    32   ar
    32    10    11   am
    33    11    12    2
    34    16    17   ar
    35    17    18   ar
    36    18    14   ar
    37     6     1   ar
    38    22    20    1
    39    32    27   ar
    40    11     4    1
    41    32    20    1
@<TRIPOS>MOLECULE
*****
 36 41 0 0 0
SMALL
GASTEIGER

@<TRIPOS>ATOM
      1 C         141.1448  138.0243  157.7110 C.ar    1  UNL1        0.1219
      2 C         139.9716  138.0595  158.6449 C.ar    1  UNL1        0.0240
      3 C         140.0832  138.7666  159.9631 C.ar    1  UNL1        0.0235
      4 C         141.3680  139.4385  160.3474 C.ar    1  UNL1        0.1166
      5 N         142.5414  139.4033  159.4134 N.ar    1  UNL1       -0.2887
      6 C         142.4298  138.6962  158.0953 C.ar    1  UNL1        0.2772
      7 O         143.6030  138.6609  157.1614 O.2     1  UNL1       -0.2654
      8 C         143.8262  140.0751  159.7977 C.3     1  UNL1        0.1307
      9 C         143.9378  140.7823  161.1158 C.3     1  UNL1        0.1183
     10 N         142.7646  140.8175  162.0497 N.am    1  UNL1       -0.2726
     11 C         141.4796  140.1456  161.6655 C.2     1  UNL1        0.2651
     12 O         140.3064  140.1808  162.5994 O.2     1  UNL1       -0.2683
     13 C         141.7505  134.4741  153.8497 C.3     1  UNL1        0.0538
     14 C         141.3116  135.6853  154.6181 C.ar    1  UNL1        0.0786
     15 C         141.6959  136.0218  156.0283 C.ar    1  UNL1        0.0963
     16 N         141.0332  137.3171  156.3929 N.ar    1  UNL1       -0.2825
     17 C         140.2393  137.7812  155.2079 C.ar    1  UNL1        0.1826
     18 N         140.4113  136.7727  154.1110 N.ar    1  UNL1       -0.2280
     19 C         142.8762  141.5246  163.3679 C.3     1  UNL1        0.0980
     20 C         141.7774  142.4379  163.8245 C.3     1  UNL1        0.0434
     21 C         141.8934  143.2160  162.5474 C.3     1  UNL1        0.0098
     22 C         140.8838  143.6179  163.5814 C.3     1  UNL1        0.0425
     23 C         139.8741  144.0197  164.6154 C.3     1  UNL1        0.1335
     24 C         138.7718  144.7840  165.2867 C.3     1  UNL1        0.0436
     25 C         139.6074  145.0633  163.5715 C.3     1  UNL1        0.0436
     26 O         139.7580  143.2415  165.8925 O.3     1  UNL1       -0.4829
     27 C         140.6516  142.0615  166.1356 C.ar    1  UNL1        0.1342
     28 C         140.5355  141.2834  167.4126 C.ar    1  UNL1        0.0365
     29 C         141.4291  140.1034  167.6558 C.ar    1  UNL1        0.0069
     30 C         142.4388  139.7015  166.6218 C.ar    1  UNL1        0.0713
     31 C         142.5548  140.4797  165.3448 C.ar    1  UNL1        0.0026
     32 C         141.6613  141.6597  165.1016 C.ar    1  UNL1        0.0128
     33 C         143.3324  138.5215  166.8650 C.3     1  UNL1        0.4186
     34 F         144.2259  137.3415  167.1081 F       1  UNL1       -0.1659
     35 F         143.6658  138.4729  165.4033 F       1  UNL1       -0.1659
     36 F         142.9989  138.5702  168.3266 F       1  UNL1       -0.1659
@<TRIPOS>BOND
     1    13    14    1
     2    14    15   ar
     3    15    16   ar
     4    16     1    1
     5     1     2   ar
     6     2     3   ar
     7     3     4   ar
     8     4     5   ar
     9     5     6   ar
    10     6     7    2
    11     5     8    1
    12     8     9    1
    13     9    10    1
    14    10    19    1
    15    20    19    1
    16    20    21    1
    17    22    21    1
    18    22    23    1
    19    23    24    1
    20    23    25    1
    21    23    26    1
    22    26    27    1
    23    27    28   ar
    24    28    29   ar
    25    29    30   ar
    26    30    33    1
    27    33    34    1
    28    33    35    1
    29    33    36    1
    30    30    31   ar
    31    31    32   ar
    32    10    11   am
    33    11    12    2
    34    16    17   ar
    35    17    18   ar
    36    18    14   ar
    37     6     1   ar
    38    22    20    1
    39    32    27   ar
    40    11     4    1
    41    32    20    1
@<TRIPOS>MOLECULE
*****
 36 41 0 0 0
SMALL
GASTEIGER

@<TRIPOS>ATOM
      1 C         141.1739  137.7214  157.2148 C.ar    1  UNL1        0.1219
      2 C         139.9140  137.9506  157.9960 C.ar    1  UNL1        0.0240
      3 C         139.9340  138.8316  159.2098 C.ar    1  UNL1        0.0235
      4 C         141.2138  139.4835  159.6425 C.ar    1  UNL1        0.1166
      5 N         142.4737  139.2543  158.8613 N.ar    1  UNL1       -0.2887
      6 C         142.4537  138.3733  157.6475 C.ar    1  UNL1        0.2772
      7 O         143.7136  138.1441  156.8663 O.2     1  UNL1       -0.2654
      8 C         143.7535  139.9061  159.2940 C.3     1  UNL1        0.1307
      9 C         143.7734  140.7871  160.5078 C.3     1  UNL1        0.1183
     10 N         142.5136  141.0163  161.2890 N.am    1  UNL1       -0.2726
     11 C         141.2337  140.3645  160.8564 C.2     1  UNL1        0.2651
     12 O         139.9739  140.5937  161.6375 O.2     1  UNL1       -0.2683
     13 C         142.0161  133.6682  153.9372 C.3     1  UNL1        0.0538
     14 C         141.5410  134.9774  154.4945 C.ar    1  UNL1        0.0786
     15 C         141.8182  135.5017  155.8721 C.ar    1  UNL1        0.0963
     16 N         141.1539  136.8404  156.0010 N.ar    1  UNL1       -0.2825
     17 C         140.4662  137.1434  154.7028 C.ar    1  UNL1        0.1826
     18 N         140.7054  135.9920  153.7718 N.ar    1  UNL1       -0.2280
     19 C         142.5335  141.8973  162.5029 C.3     1  UNL1        0.0980
     20 C         142.4069  141.2935  163.8700 C.3     1  UNL1        0.0434
     21 C         143.4045  140.2376  163.4961 C.3     1  UNL1        0.0098
     22 C         142.7961  140.2425  164.8671 C.3     1  UNL1        0.0425
     23 C         142.1876  140.2475  166.2382 C.3     1  UNL1        0.1335
     24 C         141.8898  139.8360  167.6495 C.3     1  UNL1        0.0436
     25 C         143.0818  139.0487  166.3543 C.3     1  UNL1        0.0436
     26 O         141.1900  141.3033  166.6122 O.3     1  UNL1       -0.4829
     27 C         140.8008  142.3543  165.6151 C.ar    1  UNL1        0.1342
     28 C         139.8032  143.4101  165.9891 C.ar    1  UNL1        0.0365
     29 C         139.4140  144.4610  164.9921 C.ar    1  UNL1        0.0069
     30 C         140.0225  144.4561  163.6211 C.ar    1  UNL1        0.0713
     31 C         141.0201  143.4003  163.2471 C.ar    1  UNL1        0.0026
     32 C         141.4093  142.3493  164.2441 C.ar    1  UNL1        0.0128
     33 C         139.6333  145.5071  162.6240 C.3     1  UNL1        0.4186
     34 F         139.2441  146.5580  161.6270 F       1  UNL1       -0.1659
     35 F         141.0511  145.9953  162.5852 F       1  UNL1       -0.1659
     36 F         138.2155  145.0188  162.6629 F       1  UNL1       -0.1659
@<TRIPOS>BOND
     1    13    14    1
     2    14    15   ar
     3    15    16   ar
     4    16     1    1
     5     1     2   ar
     6     2     3   ar
     7     3     4   ar
     8     4     5   ar
     9     5     6   ar
    10     6     7    2
    11     5     8    1
    12     8     9    1
    13     9    10    1
    14    10    19    1
    15    20    19    1
    16    20    21    1
    17    22    21    1
    18    22    23    1
    19    23    24    1
    20    23    25    1
    21    23    26    1
    22    26    27    1
    23    27    28   ar
    24    28    29   ar
    25    29    30   ar
    26    30    33    1
    27    33    34    1
    28    33    35    1
    29    33    36    1
    30    30    31   ar
    31    31    32   ar
    32    10    11   am
    33    11    12    2
    34    16    17   ar
    35    17    18   ar
    36    18    14   ar
    37     6     1   ar
    38    22    20    1
    39    32    27   ar
    40    11     4    1
    41    32    20    1
@<TRIPOS>MOLECULE
*****
 36 41 0 0 0
SMALL
GASTEIGER

@<TRIPOS>ATOM
      1 C         138.7215  141.9743  158.8123 C.ar    1  UNL1        0.1219
      2 C         138.6517  140.4967  158.5638 C.ar    1  UNL1        0.0240
      3 C         138.7024  139.5389  159.7171 C.ar    1  UNL1        0.0235
      4 C         138.8228  140.0587  161.1189 C.ar    1  UNL1        0.1166
      5 N         138.8926  141.5364  161.3675 N.ar    1  UNL1       -0.2887
      6 C         138.8419  142.4941  160.2142 C.ar    1  UNL1        0.2772
      7 O         138.9117  143.9717  160.4628 O.2     1  UNL1       -0.2654
      8 C         139.0131  142.0562  162.7694 C.3     1  UNL1        0.1307
      9 C         139.0638  141.0984  163.9227 C.3     1  UNL1        0.1183
     10 N         138.9940  139.6208  163.6741 N.am    1  UNL1       -0.2726
     11 C         138.8735  139.1009  162.2722 C.2     1  UNL1        0.2651
     12 O         138.8037  137.6233  162.0236 O.2     1  UNL1       -0.2683
     13 C         137.1165  144.5538  154.4937 C.3     1  UNL1        0.0538
     14 C         137.9331  144.1177  155.6740 C.ar    1  UNL1        0.0786
     15 C         137.5736  143.0288  156.6408 C.ar    1  UNL1        0.0963
     16 N         138.6708  142.9321  157.6590 N.ar    1  UNL1       -0.2825
     17 C         139.7084  143.9613  157.3214 C.ar    1  UNL1        0.1826
     18 N         139.2525  144.6941  156.0947 N.ar    1  UNL1       -0.2280
     19 C         139.0446  138.6630  164.8274 C.3     1  UNL1        0.0980
     20 C         139.4250  139.1530  166.1931 C.3     1  UNL1        0.0434
     21 C         137.9749  139.2316  166.5687 C.3     1  UNL1        0.0098
     22 C         139.0293  139.6167  167.5637 C.3     1  UNL1        0.0425
     23 C         140.0838  140.0018  168.5586 C.3     1  UNL1        0.1335
     24 C         140.7101  140.4707  169.8384 C.3     1  UNL1        0.0436
     25 C         138.8512  140.2433  169.3787 C.3     1  UNL1        0.0436
     26 O         141.5338  139.9232  168.1830 O.3     1  UNL1       -0.4829
     27 C         141.9295  139.4595  166.8125 C.ar    1  UNL1        0.1342
     28 C         143.3795  139.3809  166.4368 C.ar    1  UNL1        0.0365
     29 C         143.7752  138.9172  165.0663 C.ar    1  UNL1        0.0069
     30 C         142.7208  138.5321  164.0713 C.ar    1  UNL1        0.0713
     31 C         141.2708  138.6107  164.4470 C.ar    1  UNL1        0.0026
     32 C         140.8751  139.0744  165.8175 C.ar    1  UNL1        0.0128
     33 C         143.1165  138.0684  162.7008 C.3     1  UNL1        0.4186
     34 F         143.5122  137.6048  161.3302 F       1  UNL1       -0.1659
     35 F         144.4061  138.8258  162.8168 F       1  UNL1       -0.1659
     36 F         141.8269  137.3111  162.5847 F       1  UNL1       -0.1659
@<TRIPOS>BOND
     1    13    14    1
     2    14    15   ar
     3    15    16   ar
     4    16     1    1
     5     1     2   ar
     6     2     3   ar
     7     3     4   ar
     8     4     5   ar
     9     5     6   ar
    10     6     7    2
    11     5     8    1
    12     8     9    1
    13     9    10    1
    14    10    19    1
    15    20    19    1
    16    20    21    1
    17    22    21    1
    18    22    23    1
    19    23    24    1
    20    23    25    1
    21    23    26    1
    22    26    27    1
    23    27    28   ar
    24    28    29   ar
    25    29    30   ar
    26    30    33    1
    27    33    34    1
    28    33    35    1
    29    33    36    1
    30    30    31   ar
    31    31    32   ar
    32    10    11   am
    33    11    12    2
    34    16    17   ar
    35    17    18   ar
    36    18    14   ar
    37     6     1   ar
    38    22    20    1
    39    32    27   ar
    40    11     4    1
    41    32    20    1
@<TRIPOS>MOLECULE
*****
 36 41 0 0 0
SMALL
GASTEIGER

@<TRIPOS>ATOM
      1 C         138.1354  141.3647  157.7789 C.ar    1  UNL1        0.1219
      2 C         138.1662  142.4684  158.7942 C.ar    1  UNL1        0.0240
      3 C         138.8060  142.2396  160.1315 C.ar    1  UNL1        0.0235
      4 C         139.4150  140.9072  160.4534 C.ar    1  UNL1        0.1166
      5 N         139.3842  139.8034  159.4380 N.ar    1  UNL1       -0.2887
      6 C         138.7444  140.0322  158.1008 C.ar    1  UNL1        0.2772
      7 O         138.7136  138.9286  157.0854 O.2     1  UNL1       -0.2654
      8 C         139.9932  138.4710  159.7600 C.3     1  UNL1        0.1307
      9 C         140.6330  138.2422  161.0973 C.3     1  UNL1        0.1183
     10 N         140.6638  139.3459  162.1126 N.am    1  UNL1       -0.2726
     11 C         140.0548  140.6784  161.7907 C.2     1  UNL1        0.2651
     12 O         140.0856  141.7820  162.8060 O.2     1  UNL1       -0.2683
     13 C         134.6203  141.4319  153.8392 C.3     1  UNL1        0.0538
     14 C         135.8799  141.6244  154.6308 C.ar    1  UNL1        0.0786
     15 C         136.0983  141.2083  156.0552 C.ar    1  UNL1        0.0963
     16 N         137.4956  141.5935  156.4416 N.ar    1  UNL1       -0.2825
     17 C         138.1407  142.2477  155.2559 C.ar    1  UNL1        0.1826
     18 N         137.1422  142.2668  154.1368 N.ar    1  UNL1       -0.2280
     19 C         141.3036  139.1171  163.4499 C.3     1  UNL1        0.0980
     20 C         140.4798  139.2045  164.7003 C.3     1  UNL1        0.0434
     21 C         139.4812  138.2543  164.1087 C.3     1  UNL1        0.0098
     22 C         139.2669  138.8051  165.4874 C.3     1  UNL1        0.0425
     23 C         139.0527  139.3559  166.8661 C.3     1  UNL1        0.1335
     24 C         138.4147  139.6070  168.2002 C.3     1  UNL1        0.0436
     25 C         137.8325  138.4929  166.7379 C.3     1  UNL1        0.0436
     26 O         140.0513  140.3061  167.4576 O.3     1  UNL1       -0.4829
     27 C         141.2642  140.7055  166.6705 C.ar    1  UNL1        0.1342
     28 C         142.2628  141.6557  167.2620 C.ar    1  UNL1        0.0365
     29 C         143.4756  142.0550  166.4749 C.ar    1  UNL1        0.0069
     30 C         143.6898  141.5043  165.0963 C.ar    1  UNL1        0.0713
     31 C         142.6912  140.5541  164.5047 C.ar    1  UNL1        0.0026
     32 C         141.4784  140.1547  165.2919 C.ar    1  UNL1        0.0128
     33 C         144.9026  141.9037  164.3092 C.3     1  UNL1        0.4186
     34 F         146.1155  142.3030  163.5220 F       1  UNL1       -0.1659
     35 F         144.9737  140.5261  163.7198 F       1  UNL1       -0.1659
     36 F         144.8315  143.2812  164.8985 F       1  UNL1       -0.1659
@<TRIPOS>BOND
     1    13    14    1
     2    14    15   ar
     3    15    16   ar
     4    16     1    1
     5     1     2   ar
     6     2     3   ar
     7     3     4   ar
     8     4     5   ar
     9     5     6   ar
    10     6     7    2
    11     5     8    1
    12     8     9    1
    13     9    10    1
    14    10    19    1
    15    20    19    1
    16    20    21    1
    17    22    21    1
    18    22    23    1
    19    23    24    1
    20    23    25    1
    21    23    26    1
    22    26    27    1
    23    27    28   ar
    24    28    29   ar
    25    29    30   ar
    26    30    33    1
    27    33    34    1
    28    33    35    1
    29    33    36    1
    30    30    31   ar
    31    31    32   ar
    32    10    11   am
    33    11    12    2
    34    16    17   ar
    35    17    18   ar
    36    18    14   ar
    37     6     1   ar
    38    22    20    1
    39    32    27   ar
    40    11     4    1
    41    32    20    1
@<TRIPOS>MOLECULE
*****
 36 41 0 0 0
SMALL
GASTEIGER

@<TRIPOS>ATOM
      1 C         140.1248  143.7291  159.3100 C.ar    1  UNL1        0.1219
      2 C         138.9164  142.8528  159.4578 C.ar    1  UNL1        0.0240
      3 C         138.5957  142.2354  160.7867 C.ar    1  UNL1        0.0235
      4 C         139.4834  142.4942  161.9678 C.ar    1  UNL1        0.1166
      5 N         140.6919  143.3705  161.8200 N.ar    1  UNL1       -0.2887
      6 C         141.0126  143.9879  160.4911 C.ar    1  UNL1        0.2772
      7 O         142.2210  144.8641  160.3433 O.2     1  UNL1       -0.2654
      8 C         141.5796  143.6292  163.0011 C.3     1  UNL1        0.1307
      9 C         141.2589  143.0118  164.3299 C.3     1  UNL1        0.1183
     10 N         140.0505  142.1356  164.4777 N.am    1  UNL1       -0.2726
     11 C         139.1627  141.8767  163.2966 C.2     1  UNL1        0.2651
     12 O         137.9543  141.0005  163.4444 O.2     1  UNL1       -0.2683
     13 C         140.1949  147.0383  155.1960 C.3     1  UNL1        0.0538
     14 C         140.4777  145.8676  156.0902 C.ar    1  UNL1        0.0786
     15 C         139.8876  145.6332  157.4491 C.ar    1  UNL1        0.0963
     16 N         140.4456  144.3465  157.9811 N.ar    1  UNL1       -0.2825
     17 C         141.3805  143.7857  156.9509 C.ar    1  UNL1        0.1826
     18 N         141.4004  144.7257  155.7823 N.ar    1  UNL1       -0.2280
     19 C         139.7298  141.5181  165.8066 C.3     1  UNL1        0.0980
     20 C         140.6696  141.6949  166.9622 C.3     1  UNL1        0.0434
     21 C         139.9525  142.9531  167.3529 C.3     1  UNL1        0.0098
     22 C         141.1250  142.4772  168.1583 C.3     1  UNL1        0.0425
     23 C         142.2975  142.0012  168.9637 C.3     1  UNL1        0.1335
     24 C         143.3476  141.9569  170.0339 C.3     1  UNL1        0.0436
     25 C         141.9451  143.2440  169.7261 C.3     1  UNL1        0.0436
     26 O         143.0146  140.7430  168.5730 O.3     1  UNL1       -0.4829
     27 C         142.5593  139.9608  167.3769 C.ar    1  UNL1        0.1342
     28 C         143.2764  138.7026  166.9862 C.ar    1  UNL1        0.0365
     29 C         142.8210  137.9203  165.7901 C.ar    1  UNL1        0.0069
     30 C         141.6485  138.3963  164.9847 C.ar    1  UNL1        0.0713
     31 C         140.9314  139.6544  165.3754 C.ar    1  UNL1        0.0026
     32 C         141.3868  140.4367  166.5715 C.ar    1  UNL1        0.0128
     33 C         141.1931  137.6140  163.7885 C.3     1  UNL1        0.4186
     34 F         140.7378  136.8317  162.5924 F       1  UNL1       -0.1659
     35 F         139.8622  137.3886  164.4426 F       1  UNL1       -0.1659
     36 F         142.5241  137.8394  163.1344 F       1  UNL1       -0.1659
@<TRIPOS>BOND
     1    13    14    1
     2    14    15   ar
     3    15    16   ar
     4    16     1    1
     5     1     2   ar
     6     2     3   ar
     7     3     4   ar
     8     4     5   ar
     9     5     6   ar
    10     6     7    2
    11     5     8    1
    12     8     9    1
    13     9    10    1
    14    10    19    1
    15    20    19    1
    16    20    21    1
    17    22    21    1
    18    22    23    1
    19    23    24    1
    20    23    25    1
    21    23    26    1
    22    26    27    1
    23    27    28   ar
    24    28    29   ar
    25    29    30   ar
    26    30    33    1
    27    33    34    1
    28    33    35    1
    29    33    36    1
    30    30    31   ar
    31    31    32   ar
    32    10    11   am
    33    11    12    2
    34    16    17   ar
    35    17    18   ar
    36    18    14   ar
    37     6     1   ar
    38    22    20    1
    39    32    27   ar
    40    11     4    1
    41    32    20    1
@<TRIPOS>MOLECULE
*****
 36 41 0 0 0
SMALL
GASTEIGER

@<TRIPOS>ATOM
      1 C         141.5416  136.8569  156.1813 C.ar    1  UNL1        0.1219
      2 C         142.8657  136.9504  156.8797 C.ar    1  UNL1        0.0240
      3 C         142.9750  137.6800  158.1857 C.ar    1  UNL1        0.0235
      4 C         141.7600  138.3160  158.7934 C.ar    1  UNL1        0.1166
      5 N         140.4358  138.2225  158.0950 N.ar    1  UNL1       -0.2887
      6 C         140.3265  137.4929  156.7889 C.ar    1  UNL1        0.2772
      7 O         139.0024  137.3994  156.0905 O.2     1  UNL1       -0.2654
      8 C         139.2208  138.8586  158.7027 C.3     1  UNL1        0.1307
      9 C         139.3301  139.5881  160.0087 C.3     1  UNL1        0.1183
     10 N         140.6542  139.6817  160.7071 N.am    1  UNL1       -0.2726
     11 C         141.8693  139.0456  160.0995 C.2     1  UNL1        0.2651
     12 O         143.1934  139.1391  160.7978 O.2     1  UNL1       -0.2683
     13 C         141.2339  132.9887  152.6003 C.3     1  UNL1        0.0538
     14 C         141.2910  134.3493  153.2293 C.ar    1  UNL1        0.0786
     15 C         141.4113  134.6382  154.6962 C.ar    1  UNL1        0.0963
     16 N         141.4324  136.1273  154.8752 N.ar    1  UNL1       -0.2825
     17 C         141.3250  136.7587  153.5188 C.ar    1  UNL1        0.1826
     18 N         141.2376  135.6599  152.5016 N.ar    1  UNL1       -0.2280
     19 C         140.7634  140.4112  162.0132 C.3     1  UNL1        0.0980
     20 C         139.9985  139.9269  163.2091 C.3     1  UNL1        0.0434
     21 C         140.5726  138.5541  163.0203 C.3     1  UNL1        0.0098
     22 C         139.6231  138.8210  164.1504 C.3     1  UNL1        0.0425
     23 C         138.6735  139.0880  165.2805 C.3     1  UNL1        0.1335
     24 C         137.8205  138.8493  166.4910 C.3     1  UNL1        0.0436
     25 C         138.9514  137.6322  165.5121 C.3     1  UNL1        0.0436
     26 O         138.0994  140.4608  165.4693 O.3     1  UNL1       -0.4829
     27 C         138.4748  141.5667  164.5280 C.ar    1  UNL1        0.1342
     28 C         137.9007  142.9395  164.7167 C.ar    1  UNL1        0.0365
     29 C         138.2761  144.0454  163.7754 C.ar    1  UNL1        0.0069
     30 C         139.2256  143.7785  162.6454 C.ar    1  UNL1        0.0713
     31 C         139.7997  142.4057  162.4566 C.ar    1  UNL1        0.0026
     32 C         139.4243  141.2998  163.3979 C.ar    1  UNL1        0.0128
     33 C         139.6010  144.8844  161.7041 C.3     1  UNL1        0.4186
     34 F         139.9764  145.9903  160.7628 F       1  UNL1       -0.1659
     35 F         139.6137  143.9097  160.5640 F       1  UNL1       -0.1659
     36 F         139.5883  145.8591  162.8441 F       1  UNL1       -0.1659
@<TRIPOS>BOND
     1    13    14    1
     2    14    15   ar
     3    15    16   ar
     4    16     1    1
     5     1     2   ar
     6     2     3   ar
     7     3     4   ar
     8     4     5   ar
     9     5     6   ar
    10     6     7    2
    11     5     8    1
    12     8     9    1
    13     9    10    1
    14    10    19    1
    15    20    19    1
    16    20    21    1
    17    22    21    1
    18    22    23    1
    19    23    24    1
    20    23    25    1
    21    23    26    1
    22    26    27    1
    23    27    28   ar
    24    28    29   ar
    25    29    30   ar
    26    30    33    1
    27    33    34    1
    28    33    35    1
    29    33    36    1
    30    30    31   ar
    31    31    32   ar
    32    10    11   am
    33    11    12    2
    34    16    17   ar
    35    17    18   ar
    36    18    14   ar
    37     6     1   ar
    38    22    20    1
    39    32    27   ar
    40    11     4    1
    41    32    20    1
@<TRIPOS>MOLECULE
*****
 36 41 0 0 0
SMALL
GASTEIGER

@<TRIPOS>ATOM
      1 C         141.1297  137.4904  156.8107 C.ar    1  UNL1        0.1219
      2 C         139.9570  138.3274  157.2281 C.ar    1  UNL1        0.0240
      3 C         139.9085  138.9161  158.6069 C.ar    1  UNL1        0.0235
      4 C         141.0327  138.6678  159.5683 C.ar    1  UNL1        0.1166
      5 N         142.2055  137.8309  159.1510 N.ar    1  UNL1       -0.2887
      6 C         142.2540  137.2422  157.7722 C.ar    1  UNL1        0.2772
      7 O         143.4267  136.4052  157.3549 O.2     1  UNL1       -0.2654
      8 C         143.3297  137.5826  160.1125 C.3     1  UNL1        0.1307
      9 C         143.2812  138.1713  161.4913 C.3     1  UNL1        0.1183
     10 N         142.1085  139.0083  161.9086 N.am    1  UNL1       -0.2726
     11 C         140.9842  139.2565  160.9471 C.2     1  UNL1        0.2651
     12 O         139.8115  140.0935  161.3645 O.2     1  UNL1       -0.2683
     13 C         141.0855  134.0284  152.8241 C.3     1  UNL1        0.0538
     14 C         141.1579  135.3104  153.5996 C.ar    1  UNL1        0.0786
     15 C         141.0531  135.4467  155.0896 C.ar    1  UNL1        0.0963
     16 N         141.1782  136.9017  155.4319 N.ar    1  UNL1       -0.2825
     17 C         141.3603  137.6647  154.1534 C.ar    1  UNL1        0.1826
     18 N         141.3477  136.6812  153.0209 N.ar    1  UNL1       -0.2280
     19 C         142.0600  139.5970  163.2874 C.3     1  UNL1        0.0980
     20 C         140.9058  139.2886  164.1944 C.3     1  UNL1        0.0434
     21 C         141.0091  137.8367  163.8322 C.3     1  UNL1        0.0098
     22 C         139.9578  138.2956  164.7988 C.3     1  UNL1        0.0425
     23 C         138.9066  138.7545  165.7654 C.3     1  UNL1        0.1335
     24 C         137.7520  138.7029  166.7215 C.3     1  UNL1        0.0436
     25 C         138.6088  137.2846  165.7352 C.3     1  UNL1        0.0436
     26 O         138.8033  140.2064  166.1276 O.3     1  UNL1       -0.4829
     27 C         139.7513  141.1995  165.5233 C.ar    1  UNL1        0.1342
     28 C         139.6481  142.6514  165.8855 C.ar    1  UNL1        0.0365
     29 C         140.5960  143.6444  165.2811 C.ar    1  UNL1        0.0069
     30 C         141.6472  143.1855  164.3145 C.ar    1  UNL1        0.0713
     31 C         141.7505  141.7336  163.9523 C.ar    1  UNL1        0.0026
     32 C         140.8025  140.7406  164.5567 C.ar    1  UNL1        0.0128
     33 C         142.5952  144.1785  163.7102 C.3     1  UNL1        0.4186
     34 F         143.5432  145.1716  163.1058 F       1  UNL1       -0.1659
     35 F         141.6470  145.2902  164.0495 F       1  UNL1       -0.1659
     36 F         143.5434  143.0669  163.3708 F       1  UNL1       -0.1659
@<TRIPOS>BOND
     1    13    14    1
     2    14    15   ar
     3    15    16   ar
     4    16     1    1
     5     1     2   ar
     6     2     3   ar
     7     3     4   ar
     8     4     5   ar
     9     5     6   ar
    10     6     7    2
    11     5     8    1
    12     8     9    1
    13     9    10    1
    14    10    19    1
    15    20    19    1
    16    20    21    1
    17    22    21    1
    18    22    23    1
    19    23    24    1
    20    23    25    1
    21    23    26    1
    22    26    27    1
    23    27    28   ar
    24    28    29   ar
    25    29    30   ar
    26    30    33    1
    27    33    34    1
    28    33    35    1
    29    33    36    1
    30    30    31   ar
    31    31    32   ar
    32    10    11   am
    33    11    12    2
    34    16    17   ar
    35    17    18   ar
    36    18    14   ar
    37     6     1   ar
    38    22    20    1
    39    32    27   ar
    40    11     4    1
    41    32    20    1
