@<TRIPOS>MOLECULE
*****
 32 34 0 0 0
SMALL
GASTEIGER

@<TRIPOS>ATOM
      1 N         140.7103  142.7930  167.5750 N.am    1  UNL1       -0.2753
      2 C         141.3625  142.3692  166.2924 C.2     1  UNL1        0.2498
      3 O         142.3001  141.1984  166.2788 O.2     1  UNL1       -0.2698
      4 H         140.0949  143.5614  167.5839 H       1  UNL1        0.1556
      5 C         141.0770  143.1163  165.0233 C.ar    1  UNL1        0.0537
      6 C         139.8493  142.7950  164.2238 C.ar    1  UNL1        0.0047
      7 C         139.5639  143.5420  162.9548 C.ar    1  UNL1        0.0047
      8 C         140.5063  144.6104  162.4853 C.ar    1  UNL1        0.0536
      9 C         141.7341  144.9317  163.2848 C.ar    1  UNL1        0.0047
     10 C         142.0195  144.1846  164.5538 C.ar    1  UNL1        0.0047
     11 C         140.2209  145.3575  161.2162 C.2     1  UNL1        0.2490
     12 O         139.1970  146.4535  161.2052 O.2     1  UNL1       -0.2699
     13 N         140.9595  145.0084  159.9582 N.am    1  UNL1       -0.2761
     14 C         141.9835  143.9124  159.9691 C.3     1  UNL1        0.0937
     15 C         142.7220  143.5634  158.7110 C.3     1  UNL1        0.0216
     16 C         142.4366  144.3104  157.4420 C.3     1  UNL1        0.0035
     17 C         141.4126  145.4065  157.4310 C.3     1  UNL1        0.0216
     18 C         140.6741  145.7555  158.6891 C.3     1  UNL1        0.0937
     19 C         140.3718  140.7475  169.2622 C.ar    1  UNL1        0.0740
     20 C         140.9456  140.3652  170.5943 C.ar    1  UNL1        0.0133
     21 C         141.9242  141.4275  170.9996 C.ar    1  UNL1        0.0368
     22 S         141.9551  142.4662  169.9178 S.2     1  UNL1       -0.0715
     23 C         140.9957  142.0459  168.8441 C.ar    1  UNL1        0.0853
     24 C         138.5813  138.8621  166.2640 C.2     1  UNL1        0.4076
     25 O         137.3154  138.4094  166.9293 O.2     1  UNL1       -0.2260
     26 N         139.6000  139.6414  167.0416 N.am    1  UNL1       -0.2174
     27 C         139.3530  139.9681  168.4846 C.2     1  UNL1        0.2557
     28 O         138.0872  139.5155  169.1500 O.2     1  UNL1       -0.2696
     29 H         140.4308  139.9385  166.6049 H       1  UNL1        0.1612
     30 O         138.8283  138.5354  164.8210 O.3     1  UNL1       -0.4344
     31 C         141.0401  137.2488  164.3712 C.3     1  UNL1        0.0513
     32 C         140.2300  138.5085  164.2875 C.3     1  UNL1        0.2102
@<TRIPOS>BOND
     1    31    32    1
     2    32    30    1
     3    30    24    1
     4    24    25    2
     5    24    26   am
     6    26    27   am
     7    27    28    2
     8    27    19    1
     9    19    20   ar
    10    20    21   ar
    11    21    22   ar
    12    22    23   ar
    13    23     1    1
    14     1     2   am
    15     2     3    2
    16     2     5    1
    17     5     6   ar
    18     6     7   ar
    19     7     8   ar
    20     8    11    1
    21    11    12    2
    22    11    13   am
    23    13    14    1
    24    14    15    1
    25    15    16    1
    26    16    17    1
    27    17    18    1
    28     8     9   ar
    29     9    10   ar
    30    23    19   ar
    31    10     5   ar
    32    18    13    1
    33    26    29    1
    34     1     4    1
@<TRIPOS>MOLECULE
*****
 32 34 0 0 0
SMALL
GASTEIGER

@<TRIPOS>ATOM
      1 N         140.6492  140.9535  167.6084 N.am    1  UNL1       -0.2753
      2 C         139.5754  140.0292  167.1157 C.2     1  UNL1        0.2498
      3 O         138.6817  139.3281  168.0953 O.2     1  UNL1       -0.2698
      4 H         141.2358  141.4136  166.9654 H       1  UNL1        0.1556
      5 C         139.3954  139.8060  165.6433 C.ar    1  UNL1        0.0537
      6 C         138.9854  138.4560  165.1340 C.ar    1  UNL1        0.0047
      7 C         138.8054  138.2329  163.6617 C.ar    1  UNL1        0.0047
      8 C         139.0354  139.3597  162.6987 C.ar    1  UNL1        0.0536
      9 C         139.4454  140.7097  163.2080 C.ar    1  UNL1        0.0047
     10 C         139.6254  140.9328  164.6803 C.ar    1  UNL1        0.0047
     11 C         138.8554  139.1365  161.2263 C.2     1  UNL1        0.2490
     12 O         137.5011  139.3015  160.6028 O.2     1  UNL1       -0.2699
     13 N         140.0296  138.7482  160.3775 N.am    1  UNL1       -0.2761
     14 C         141.3838  138.5832  161.0010 C.3     1  UNL1        0.0937
     15 C         142.5580  138.1950  160.1521 C.3     1  UNL1        0.0216
     16 C         142.3780  137.9718  158.6798 C.3     1  UNL1        0.0035
     17 C         141.0237  138.1368  158.0563 C.3     1  UNL1        0.0216
     18 C         139.8495  138.5250  158.9051 C.3     1  UNL1        0.0937
     19 C         141.7168  140.3808  169.9911 C.ar    1  UNL1        0.0740
     20 C         141.5894  140.9472  171.3742 C.ar    1  UNL1        0.0133
     21 C         140.6230  142.0932  171.3186 C.ar    1  UNL1        0.0368
     22 S         140.1532  142.2350  169.9011 S.2     1  UNL1       -0.0715
     23 C         140.8292  141.1767  169.0808 C.ar    1  UNL1        0.0853
     24 C         143.8615  137.0488  170.2099 C.2     1  UNL1        0.4076
     25 O         144.3068  136.9042  168.7849 O.2     1  UNL1       -0.2260
     26 N         142.9982  138.2077  170.6120 N.am    1  UNL1       -0.2174
     27 C         142.5801  139.2220  169.5890 C.2     1  UNL1        0.2557
     28 O         143.0254  139.0774  168.1640 O.2     1  UNL1       -0.2696
     29 H         142.7059  138.3026  171.5473 H       1  UNL1        0.1612
     30 O         144.2796  136.0346  171.2329 O.3     1  UNL1       -0.4344
     31 C         146.1007  135.0350  172.7931 C.3     1  UNL1        0.0513
     32 C         145.6522  136.0980  171.8344 C.3     1  UNL1        0.2102
@<TRIPOS>BOND
     1    31    32    1
     2    32    30    1
     3    30    24    1
     4    24    25    2
     5    24    26   am
     6    26    27   am
     7    27    28    2
     8    27    19    1
     9    19    20   ar
    10    20    21   ar
    11    21    22   ar
    12    22    23   ar
    13    23     1    1
    14     1     2   am
    15     2     3    2
    16     2     5    1
    17     5     6   ar
    18     6     7   ar
    19     7     8   ar
    20     8    11    1
    21    11    12    2
    22    11    13   am
    23    13    14    1
    24    14    15    1
    25    15    16    1
    26    16    17    1
    27    17    18    1
    28     8     9   ar
    29     9    10   ar
    30    23    19   ar
    31    10     5   ar
    32    18    13    1
    33    26    29    1
    34     1     4    1
@<TRIPOS>MOLECULE
*****
 32 34 0 0 0
SMALL
GASTEIGER

@<TRIPOS>ATOM
      1 N         140.6790  142.6505  167.4280 N.am    1  UNL1       -0.2753
      2 C         141.6334  142.2109  166.3576 C.2     1  UNL1        0.2498
      3 O         142.7771  141.3026  166.6993 O.2     1  UNL1       -0.2698
      4 H         139.9284  143.2466  167.2037 H       1  UNL1        0.1556
      5 C         141.4441  142.6797  164.9453 C.ar    1  UNL1        0.0537
      6 C         140.4175  143.7282  164.6343 C.ar    1  UNL1        0.0047
      7 C         140.2283  144.1969  163.2221 C.ar    1  UNL1        0.0047
      8 C         141.0656  143.6172  162.1208 C.ar    1  UNL1        0.0536
      9 C         142.0923  142.5688  162.4318 C.ar    1  UNL1        0.0047
     10 C         142.2815  142.1000  163.8440 C.ar    1  UNL1        0.0047
     11 C         140.8764  144.0860  160.7085 C.2     1  UNL1        0.2490
     12 O         141.6080  145.2996  160.2167 O.2     1  UNL1       -0.2699
     13 N         139.9555  143.3412  159.7881 N.am    1  UNL1       -0.2761
     14 C         139.2238  142.1276  160.2799 C.3     1  UNL1        0.0937
     15 C         138.3029  141.3828  159.3594 C.3     1  UNL1        0.0216
     16 C         138.1137  141.8516  157.9472 C.3     1  UNL1        0.0035
     17 C         138.8453  143.0652  157.4554 C.3     1  UNL1        0.0216
     18 C         139.7662  143.8100  158.3758 C.3     1  UNL1        0.0937
     19 C         140.1774  141.0153  169.4822 C.ar    1  UNL1        0.0740
     20 C         140.6638  140.9097  170.8972 C.ar    1  UNL1        0.0133
     21 C         141.6555  142.0109  171.1298 C.ar    1  UNL1        0.0368
     22 S         141.7818  142.7971  169.8585 S.2     1  UNL1       -0.0715
     23 C         140.8683  142.1817  168.8403 C.ar    1  UNL1        0.0853
     24 C         138.2741  138.9236  166.6978 C.2     1  UNL1        0.4076
     25 O         137.1727  138.3081  167.5090 O.2     1  UNL1       -0.2260
     26 N         139.2756  139.8260  167.3556 N.am    1  UNL1       -0.2174
     27 C         139.1758  140.1129  168.8245 C.2     1  UNL1        0.2557
     28 O         138.0744  139.4973  169.6357 O.2     1  UNL1       -0.2696
     29 H         139.9985  140.2300  166.8231 H       1  UNL1        0.1612
     30 O         138.3740  138.6368  165.2289 O.3     1  UNL1       -0.4344
     31 C         138.1159  140.7649  163.7612 C.3     1  UNL1        0.0513
     32 C         138.9690  139.6571  164.3043 C.3     1  UNL1        0.2102
@<TRIPOS>BOND
     1    31    32    1
     2    32    30    1
     3    30    24    1
     4    24    25    2
     5    24    26   am
     6    26    27   am
     7    27    28    2
     8    27    19    1
     9    19    20   ar
    10    20    21   ar
    11    21    22   ar
    12    22    23   ar
    13    23     1    1
    14     1     2   am
    15     2     3    2
    16     2     5    1
    17     5     6   ar
    18     6     7   ar
    19     7     8   ar
    20     8    11    1
    21    11    12    2
    22    11    13   am
    23    13    14    1
    24    14    15    1
    25    15    16    1
    26    16    17    1
    27    17    18    1
    28     8     9   ar
    29     9    10   ar
    30    23    19   ar
    31    10     5   ar
    32    18    13    1
    33    26    29    1
    34     1     4    1
@<TRIPOS>MOLECULE
*****
 32 34 0 0 0
SMALL
GASTEIGER

@<TRIPOS>ATOM
      1 N         142.3546  142.2957  166.2935 N.am    1  UNL1       -0.2753
      2 C         140.9774  142.4698  165.7253 C.2     1  UNL1        0.2498
      3 O         139.7986  141.8451  166.4110 O.2     1  UNL1       -0.2698
      4 H         143.1282  142.7057  165.8435 H       1  UNL1        0.1556
      5 C         140.7789  143.2687  164.4712 C.ar    1  UNL1        0.0537
      6 C         139.6962  142.8904  163.5045 C.ar    1  UNL1        0.0047
      7 C         139.4978  143.6892  162.2505 C.ar    1  UNL1        0.0047
      8 C         140.3821  144.8663  161.9633 C.ar    1  UNL1        0.0536
      9 C         141.4648  145.2446  162.9301 C.ar    1  UNL1        0.0047
     10 C         141.6632  144.4458  164.1840 C.ar    1  UNL1        0.0047
     11 C         140.1837  145.6652  160.7093 C.2     1  UNL1        0.2490
     12 O         139.2640  146.8502  160.7126 O.2     1  UNL1       -0.2699
     13 N         140.9048  145.2790  159.4520 N.am    1  UNL1       -0.2761
     14 C         141.8244  144.0940  159.4487 C.3     1  UNL1        0.0937
     15 C         142.5456  143.7078  158.1914 C.3     1  UNL1        0.0216
     16 C         142.3472  144.5066  156.9374 C.3     1  UNL1        0.0035
     17 C         141.4275  145.6916  156.9407 C.3     1  UNL1        0.0216
     18 C         140.7064  146.0778  158.1980 C.3     1  UNL1        0.0937
     19 C         142.4361  140.0066  167.6714 C.ar    1  UNL1        0.0740
     20 C         142.7140  139.6368  169.0983 C.ar    1  UNL1        0.0133
     21 C         143.0028  140.8985  169.8564 C.ar    1  UNL1        0.0368
     22 S         142.9032  142.0482  168.8979 S.2     1  UNL1       -0.0715
     23 C         142.5530  141.4968  167.5476 C.ar    1  UNL1        0.0853
     24 C         140.3590  138.0186  164.9358 C.2     1  UNL1        0.4076
     25 O         141.4281  137.1473  164.3460 O.2     1  UNL1       -0.2260
     26 N         140.6950  138.9716  166.0442 N.am    1  UNL1       -0.2174
     27 C         142.1001  139.0535  166.5630 C.2     1  UNL1        0.2557
     28 O         143.1692  138.1822  165.9731 O.2     1  UNL1       -0.2696
     29 H         139.9933  139.5435  166.4313 H       1  UNL1        0.1612
     30 O         138.9539  137.9368  164.4171 O.3     1  UNL1       -0.4344
     31 C         138.1449  139.5241  162.5262 C.3     1  UNL1        0.0513
     32 C         138.6743  138.1912  162.9656 C.3     1  UNL1        0.2102
@<TRIPOS>BOND
     1    31    32    1
     2    32    30    1
     3    30    24    1
     4    24    25    2
     5    24    26   am
     6    26    27   am
     7    27    28    2
     8    27    19    1
     9    19    20   ar
    10    20    21   ar
    11    21    22   ar
    12    22    23   ar
    13    23     1    1
    14     1     2   am
    15     2     3    2
    16     2     5    1
    17     5     6   ar
    18     6     7   ar
    19     7     8   ar
    20     8    11    1
    21    11    12    2
    22    11    13   am
    23    13    14    1
    24    14    15    1
    25    15    16    1
    26    16    17    1
    27    17    18    1
    28     8     9   ar
    29     9    10   ar
    30    23    19   ar
    31    10     5   ar
    32    18    13    1
    33    26    29    1
    34     1     4    1
@<TRIPOS>MOLECULE
*****
 32 34 0 0 0
SMALL
GASTEIGER

@<TRIPOS>ATOM
      1 N         140.4118  141.4840  167.2533 N.am    1  UNL1       -0.2753
      2 C         139.4550  140.4960  166.6548 C.2     1  UNL1        0.2498
      3 O         138.8389  139.4328  167.5152 O.2     1  UNL1       -0.2698
      4 H         140.8162  142.1817  166.6886 H       1  UNL1        0.1556
      5 C         139.1142  140.5710  165.1959 C.ar    1  UNL1        0.0537
      6 C         137.9722  141.4277  164.7356 C.ar    1  UNL1        0.0047
      7 C         137.6315  141.5028  163.2768 C.ar    1  UNL1        0.0047
      8 C         138.4327  140.7211  162.2783 C.ar    1  UNL1        0.0536
      9 C         139.5747  139.8644  162.7386 C.ar    1  UNL1        0.0047
     10 C         139.9154  139.7893  164.1974 C.ar    1  UNL1        0.0047
     11 C         138.0919  140.7961  160.8194 C.2     1  UNL1        0.2490
     12 O         137.1692  139.7816  160.2116 O.2     1  UNL1       -0.2699
     13 N         138.6738  141.8857  159.9683 N.am    1  UNL1       -0.2761
     14 C         139.5964  142.9002  160.5761 C.3     1  UNL1        0.0937
     15 C         140.1783  143.9898  159.7250 C.3     1  UNL1        0.0216
     16 C         139.8375  144.0648  158.2662 C.3     1  UNL1        0.0035
     17 C         138.9148  143.0503  157.6584 C.3     1  UNL1        0.0216
     18 C         138.3330  141.9607  158.5094 C.3     1  UNL1        0.0937
     19 C         141.7507  140.4803  169.3378 C.ar    1  UNL1        0.0740
     20 C         141.7701  140.7468  170.8138 C.ar    1  UNL1        0.0133
     21 C         140.7839  141.8402  171.1004 C.ar    1  UNL1        0.0368
     22 S         140.1551  142.2494  169.8014 S.2     1  UNL1       -0.0715
     23 C         140.7526  141.4089  168.7122 C.ar    1  UNL1        0.0853
     24 C         143.6342  138.5716  166.4121 C.2     1  UNL1        0.4076
     25 O         144.2482  137.4304  167.1674 O.2     1  UNL1       -0.2260
     26 N         142.8017  139.5882  167.1356 N.am    1  UNL1       -0.2174
     27 C         142.5832  139.4636  168.6144 C.2     1  UNL1        0.2557
     28 O         143.1972  138.3224  169.3697 O.2     1  UNL1       -0.2696
     29 H         142.3987  140.3373  166.6399 H       1  UNL1        0.1612
     30 O         143.8526  138.6963  164.9333 O.3     1  UNL1       -0.4344
     31 C         144.6815  140.2931  163.0592 C.3     1  UNL1        0.0513
     32 C         144.8743  139.6589  164.4047 C.3     1  UNL1        0.2102
@<TRIPOS>BOND
     1    31    32    1
     2    32    30    1
     3    30    24    1
     4    24    25    2
     5    24    26   am
     6    26    27   am
     7    27    28    2
     8    27    19    1
     9    19    20   ar
    10    20    21   ar
    11    21    22   ar
    12    22    23   ar
    13    23     1    1
    14     1     2   am
    15     2     3    2
    16     2     5    1
    17     5     6   ar
    18     6     7   ar
    19     7     8   ar
    20     8    11    1
    21    11    12    2
    22    11    13   am
    23    13    14    1
    24    14    15    1
    25    15    16    1
    26    16    17    1
    27    17    18    1
    28     8     9   ar
    29     9    10   ar
    30    23    19   ar
    31    10     5   ar
    32    18    13    1
    33    26    29    1
    34     1     4    1
@<TRIPOS>MOLECULE
*****
 32 34 0 0 0
SMALL
GASTEIGER

@<TRIPOS>ATOM
      1 N         136.6224  142.0217  156.7227 N.am    1  UNL1       -0.2753
      2 C         137.6075  140.9807  157.1652 C.2     1  UNL1        0.2498
      3 O         137.8934  139.7978  156.2882 O.2     1  UNL1       -0.2698
      4 H         136.4348  142.7981  157.2983 H       1  UNL1        0.1556
      5 C         138.3069  141.1226  158.4846 C.ar    1  UNL1        0.0537
      6 C         139.3586  142.1766  158.6664 C.ar    1  UNL1        0.0047
      7 C         140.0579  142.3184  159.9858 C.ar    1  UNL1        0.0047
      8 C         139.7056  141.4064  161.1233 C.ar    1  UNL1        0.0536
      9 C         138.6539  140.3524  160.9415 C.ar    1  UNL1        0.0047
     10 C         137.9545  140.2106  159.6221 C.ar    1  UNL1        0.0047
     11 C         140.4050  141.5483  162.4427 C.2     1  UNL1        0.2490
     12 O         141.6248  140.7265  162.7372 O.2     1  UNL1       -0.2699
     13 N         139.8845  142.5119  163.4677 N.am    1  UNL1       -0.2761
     14 C         138.6646  143.3337  163.1732 C.3     1  UNL1        0.0937
     15 C         138.1442  144.2973  164.1982 C.3     1  UNL1        0.0216
     16 C         138.8436  144.4392  165.5176 C.3     1  UNL1        0.0035
     17 C         140.0634  143.6174  165.8120 C.3     1  UNL1        0.0216
     18 C         140.5839  142.6538  164.7871 C.3     1  UNL1        0.0937
     19 C         134.7400  141.0014  155.1225 C.ar    1  UNL1        0.0740
     20 C         134.3697  141.1701  153.6787 C.ar    1  UNL1        0.0133
     21 C         135.3239  142.1528  153.0672 C.ar    1  UNL1        0.0368
     22 S         136.2840  142.5914  154.1332 S.2     1  UNL1       -0.0715
     23 C         135.9230  141.8798  155.4033 C.ar    1  UNL1        0.0853
     24 C         132.0345  138.6017  156.7571 C.2     1  UNL1        0.4076
     25 O         132.6658  138.3293  158.0902 O.2     1  UNL1       -0.2260
     26 N         132.7259  139.4924  155.7679 N.am    1  UNL1       -0.2174
     27 C         134.0486  140.1108  156.1117 C.2     1  UNL1        0.2557
     28 O         134.6799  139.8383  157.4449 O.2     1  UNL1       -0.2696
     29 H         132.3116  139.6713  154.8929 H       1  UNL1        0.1612
     30 O         130.7118  137.9835  156.4132 O.3     1  UNL1       -0.4344
     31 C         129.0945  137.4952  158.3869 C.3     1  UNL1        0.0513
     32 C         129.4900  138.3354  157.2089 C.3     1  UNL1        0.2102
@<TRIPOS>BOND
     1    31    32    1
     2    32    30    1
     3    30    24    1
     4    24    25    2
     5    24    26   am
     6    26    27   am
     7    27    28    2
     8    27    19    1
     9    19    20   ar
    10    20    21   ar
    11    21    22   ar
    12    22    23   ar
    13    23     1    1
    14     1     2   am
    15     2     3    2
    16     2     5    1
    17     5     6   ar
    18     6     7   ar
    19     7     8   ar
    20     8    11    1
    21    11    12    2
    22    11    13   am
    23    13    14    1
    24    14    15    1
    25    15    16    1
    26    16    17    1
    27    17    18    1
    28     8     9   ar
    29     9    10   ar
    30    23    19   ar
    31    10     5   ar
    32    18    13    1
    33    26    29    1
    34     1     4    1
@<TRIPOS>MOLECULE
*****
 32 34 0 0 0
SMALL
GASTEIGER

@<TRIPOS>ATOM
      1 N         141.2233  138.9182  160.7899 N.am    1  UNL1       -0.2753
      2 C         139.8556  138.4680  161.2100 C.2     1  UNL1        0.2498
      3 O         138.8995  137.9229  160.1908 O.2     1  UNL1       -0.2698
      4 H         141.8509  139.2760  161.4588 H       1  UNL1        0.1556
      5 C         139.4439  138.5627  162.6493 C.ar    1  UNL1        0.0537
      6 C         138.5365  139.6694  163.0985 C.ar    1  UNL1        0.0047
      7 C         138.1249  139.7641  164.5378 C.ar    1  UNL1        0.0047
      8 C         138.6207  138.7521  165.5278 C.ar    1  UNL1        0.0536
      9 C         139.5281  137.6454  165.0786 C.ar    1  UNL1        0.0047
     10 C         139.9397  137.5507  163.6393 C.ar    1  UNL1        0.0047
     11 C         138.2090  138.8469  166.9672 C.2     1  UNL1        0.2490
     12 O         137.0951  137.9871  167.4868 O.2     1  UNL1       -0.2699
     13 N         138.9112  139.8014  167.8868 N.am    1  UNL1       -0.2761
     14 C         140.0251  140.6611  167.3672 C.3     1  UNL1        0.0937
     15 C         140.7274  141.6157  168.2869 C.3     1  UNL1        0.0216
     16 C         140.3157  141.7104  169.7262 C.3     1  UNL1        0.0035
     17 C         139.2018  140.8506  170.2458 C.3     1  UNL1        0.0216
     18 C         138.4996  139.8961  169.3262 C.3     1  UNL1        0.0937
     19 C         141.0996  139.6563  158.2237 C.ar    1  UNL1        0.0740
     20 C         141.7881  139.2268  156.9621 C.ar    1  UNL1        0.0133
     21 C         142.7490  138.1285  157.3093 C.ar    1  UNL1        0.0368
     22 S         142.6544  137.8792  158.7855 S.2     1  UNL1       -0.0715
     23 C         141.6350  138.8235  159.3505 C.ar    1  UNL1        0.0853
     24 C         138.9922  142.6985  159.6569 C.2     1  UNL1        0.4076
     25 O         137.9765  142.8778  158.5678 O.2     1  UNL1       -0.2260
     26 N         140.0333  141.6247  159.5422 N.am    1  UNL1       -0.2174
     27 C         140.0586  140.7301  158.3384 C.2     1  UNL1        0.2557
     28 O         139.0428  140.9093  157.2493 O.2     1  UNL1       -0.2696
     29 H         140.6999  141.5070  160.2570 H       1  UNL1        0.1612
     30 O         138.9670  143.5930  160.8607 O.3     1  UNL1       -0.4344
     31 C         137.7746  144.2186  163.0826 C.3     1  UNL1        0.0513
     32 C         138.1995  143.1841  162.0829 C.3     1  UNL1        0.2102
@<TRIPOS>BOND
     1    31    32    1
     2    32    30    1
     3    30    24    1
     4    24    25    2
     5    24    26   am
     6    26    27   am
     7    27    28    2
     8    27    19    1
     9    19    20   ar
    10    20    21   ar
    11    21    22   ar
    12    22    23   ar
    13    23     1    1
    14     1     2   am
    15     2     3    2
    16     2     5    1
    17     5     6   ar
    18     6     7   ar
    19     7     8   ar
    20     8    11    1
    21    11    12    2
    22    11    13   am
    23    13    14    1
    24    14    15    1
    25    15    16    1
    26    16    17    1
    27    17    18    1
    28     8     9   ar
    29     9    10   ar
    30    23    19   ar
    31    10     5   ar
    32    18    13    1
    33    26    29    1
    34     1     4    1
@<TRIPOS>MOLECULE
*****
 32 34 0 0 0
SMALL
GASTEIGER

@<TRIPOS>ATOM
      1 N         140.5298  141.8287  167.4956 N.am    1  UNL1       -0.2753
      2 C         139.6220  140.8827  166.7669 C.2     1  UNL1        0.2498
      3 O         139.0314  139.7063  167.4861 O.2     1  UNL1       -0.2698
      4 H         140.9174  142.6008  167.0235 H       1  UNL1        0.1556
      5 C         139.3048  141.1131  165.3190 C.ar    1  UNL1        0.0537
      6 C         138.1984  140.3425  164.6617 C.ar    1  UNL1        0.0047
      7 C         137.8812  140.5730  163.2139 C.ar    1  UNL1        0.0047
      8 C         138.6705  141.5740  162.4233 C.ar    1  UNL1        0.0536
      9 C         139.7769  142.3446  163.0806 C.ar    1  UNL1        0.0047
     10 C         140.0940  142.1142  164.5284 C.ar    1  UNL1        0.0047
     11 C         138.3532  141.8044  160.9754 C.2     1  UNL1        0.2490
     12 O         137.6080  143.0374  160.5579 O.2     1  UNL1       -0.2699
     13 N         138.7813  140.8019  159.9451 N.am    1  UNL1       -0.2761
     14 C         139.5266  139.5689  160.3626 C.3     1  UNL1        0.0937
     15 C         139.9547  138.5663  159.3322 C.3     1  UNL1        0.0216
     16 C         139.6374  138.7968  157.8843 C.3     1  UNL1        0.0035
     17 C         138.8922  140.0298  157.4669 C.3     1  UNL1        0.0216
     18 C         138.4641  141.0323  158.4972 C.3     1  UNL1        0.0937
     19 C         141.7861  140.5623  169.4863 C.ar    1  UNL1        0.0740
     20 C         141.8003  140.6872  170.9810 C.ar    1  UNL1        0.0133
     21 C         140.8698  141.8004  171.3620 C.ar    1  UNL1        0.0368
     22 S         140.2806  142.3635  170.1027 S.2     1  UNL1       -0.0715
     23 C         140.8470  141.5983  168.9435 C.ar    1  UNL1        0.0853
     24 C         143.5435  138.8025  166.3936 C.2     1  UNL1        0.4076
     25 O         144.1467  137.5999  167.0568 O.2     1  UNL1       -0.2260
     26 N         142.7566  139.7899  167.2034 N.am    1  UNL1       -0.2174
     27 C         142.5730  139.5748  168.6765 C.2     1  UNL1        0.2557
     28 O         143.1762  138.3723  169.3398 O.2     1  UNL1       -0.2696
     29 H         142.3607  140.5792  166.7681 H       1  UNL1        0.1612
     30 O         143.7271  139.0177  164.9205 O.3     1  UNL1       -0.4344
     31 C         141.7737  139.1424  163.2121 C.3     1  UNL1        0.0513
     32 C         142.8103  138.3425  163.9440 C.3     1  UNL1        0.2102
@<TRIPOS>BOND
     1    31    32    1
     2    32    30    1
     3    30    24    1
     4    24    25    2
     5    24    26   am
     6    26    27   am
     7    27    28    2
     8    27    19    1
     9    19    20   ar
    10    20    21   ar
    11    21    22   ar
    12    22    23   ar
    13    23     1    1
    14     1     2   am
    15     2     3    2
    16     2     5    1
    17     5     6   ar
    18     6     7   ar
    19     7     8   ar
    20     8    11    1
    21    11    12    2
    22    11    13   am
    23    13    14    1
    24    14    15    1
    25    15    16    1
    26    16    17    1
    27    17    18    1
    28     8     9   ar
    29     9    10   ar
    30    23    19   ar
    31    10     5   ar
    32    18    13    1
    33    26    29    1
    34     1     4    1
@<TRIPOS>MOLECULE
*****
 32 34 0 0 0
SMALL
GASTEIGER

@<TRIPOS>ATOM
      1 N         138.8539  140.4536  160.4678 N.am    1  UNL1       -0.2753
      2 C         138.9221  139.1712  161.2427 C.2     1  UNL1        0.2498
      3 O         139.1202  137.8698  160.5235 O.2     1  UNL1       -0.2698
      4 H         138.7240  141.3077  160.9399 H       1  UNL1        0.1556
      5 C         138.7923  139.1900  162.7370 C.ar    1  UNL1        0.0537
      6 C         138.2034  140.3865  163.4237 C.ar    1  UNL1        0.0047
      7 C         138.0736  140.4053  164.9179 C.ar    1  UNL1        0.0047
      8 C         138.5326  139.2276  165.7255 C.ar    1  UNL1        0.0536
      9 C         139.1214  138.0310  165.0389 C.ar    1  UNL1        0.0047
     10 C         139.2512  138.0122  163.5446 C.ar    1  UNL1        0.0047
     11 C         138.4027  139.2464  167.2198 C.2     1  UNL1        0.2490
     12 O         137.4404  138.3189  167.9007 O.2     1  UNL1       -0.2699
     13 N         139.2351  140.1927  168.0331 N.am    1  UNL1       -0.2761
     14 C         140.1974  141.1202  167.3522 C.3     1  UNL1        0.0937
     15 C         141.0299  142.0666  168.1656 C.3     1  UNL1        0.0216
     16 C         140.9000  142.0854  169.6598 C.3     1  UNL1        0.0035
     17 C         139.9377  141.1579  170.3407 C.3     1  UNL1        0.0216
     18 C         139.1053  140.2115  169.5274 C.3     1  UNL1        0.0937
     19 C         140.2251  140.1007  158.2005 C.ar    1  UNL1        0.0740
     20 C         139.9036  140.2062  156.7391 C.ar    1  UNL1        0.0133
     21 C         138.4635  140.6055  156.6090 C.ar    1  UNL1        0.0368
     22 S         137.8951  140.7467  157.9899 S.2     1  UNL1       -0.0715
     23 C         138.9838  140.4348  158.9735 C.ar    1  UNL1        0.0853
     24 C         143.5692  140.2817  160.3299 C.2     1  UNL1        0.4076
     25 O         144.2134  138.9793  159.9573 O.2     1  UNL1       -0.2260
     26 N         142.2398  140.6555  159.7442 N.am    1  UNL1       -0.2174
     27 C         141.5545  139.7269  158.7861 C.2     1  UNL1        0.2557
     28 O         142.1986  138.4245  158.4135 O.2     1  UNL1       -0.2696
     29 H         141.8171  141.5103  159.9887 H       1  UNL1        0.1612
     30 O         144.2545  141.2103  161.2880 O.3     1  UNL1       -0.4344
     31 C         143.9814  139.7537  163.4219 C.3     1  UNL1        0.0513
     32 C         144.8047  140.6827  162.5798 C.3     1  UNL1        0.2102
@<TRIPOS>BOND
     1    31    32    1
     2    32    30    1
     3    30    24    1
     4    24    25    2
     5    24    26   am
     6    26    27   am
     7    27    28    2
     8    27    19    1
     9    19    20   ar
    10    20    21   ar
    11    21    22   ar
    12    22    23   ar
    13    23     1    1
    14     1     2   am
    15     2     3    2
    16     2     5    1
    17     5     6   ar
    18     6     7   ar
    19     7     8   ar
    20     8    11    1
    21    11    12    2
    22    11    13   am
    23    13    14    1
    24    14    15    1
    25    15    16    1
    26    16    17    1
    27    17    18    1
    28     8     9   ar
    29     9    10   ar
    30    23    19   ar
    31    10     5   ar
    32    18    13    1
    33    26    29    1
    34     1     4    1
