@<TRIPOS>MOLECULE
*****
 35 39 0 0 0
SMALL
GASTEIGER

@<TRIPOS>ATOM
      1 N         144.4641  139.3188  160.9542 N.am    1  UNL1       -0.2681
      2 C         143.8047  139.5121  162.2876 C.2     1  UNL1        0.3082
      3 O         142.3104  139.6049  162.3789 O.2     1  UNL1       -0.2522
      4 N         144.6397  139.6126  163.5296 N.am    1  UNL1       -0.2681
      5 H         145.4449  139.2579  160.8943 H       1  UNL1        0.1564
      6 H         145.6205  139.5516  163.4697 H       1  UNL1        0.1564
      7 C         142.6158  141.4489  156.5900 C.3     1  UNL1        0.0324
      8 C         142.7050  140.2834  157.5300 C.ar    1  UNL1       -0.0073
      9 C         143.5400  140.3838  158.7721 C.ar    1  UNL1        0.0117
     10 C         143.6292  139.2184  159.7121 C.ar    1  UNL1        0.0513
     11 C         142.8834  137.9524  159.4101 C.ar    1  UNL1        0.0160
     12 C         142.0484  137.8519  158.1680 C.ar    1  UNL1        0.0155
     13 C         141.9592  139.0174  157.2280 C.ar    1  UNL1        0.0440
     14 N         141.1243  138.9170  155.9859 N.pl3   1  UNL1       -0.3030
     15 C         139.6709  139.2857  156.0273 C.3     1  UNL1        0.1231
     16 C         138.8360  139.1853  154.7852 C.3     1  UNL1        0.1636
     17 O         139.4544  138.7160  153.5017 O.3     1  UNL1       -0.3501
     18 C         140.9078  138.3472  153.4603 C.3     1  UNL1        0.1636
     19 C         141.7427  138.4477  154.7024 C.3     1  UNL1        0.1231
     20 C         143.9803  139.8058  164.8630 C.ar    1  UNL1        0.0516
     21 C         143.5529  141.1767  165.2967 C.ar    1  UNL1        0.0147
     22 C         142.8935  141.3700  166.6300 C.ar    1  UNL1        0.0010
     23 C         142.6615  140.1924  167.5297 C.ar    1  UNL1       -0.0029
     24 C         143.0888  138.8216  167.0960 C.ar    1  UNL1        0.0010
     25 C         143.7482  138.6282  165.7626 C.ar    1  UNL1        0.0147
     26 C         142.0020  140.3858  168.8631 C.2     1  UNL1       -0.0014
     27 C         142.8129  140.8331  170.0430 C.2     1  UNL1        0.0472
     28 C         142.1535  141.0264  171.3763 C.2     1  UNL1        0.2354
     29 N         140.6831  140.7724  171.5296 N.2     1  UNL1       -0.0320
     30 C         139.8722  140.3250  170.3497 C.2     1  UNL1        0.3869
     31 N         138.4158  139.9996  170.1980 N.2     1  UNL1        0.0818
     32 N         138.1752  139.6052  168.7710 N.2     1  UNL1       -0.0421
     33 C         139.4828  139.6868  168.0406 C.2     1  UNL1        0.0992
     34 C         139.7030  139.3778  166.5894 C.3     1  UNL1        0.0523
     35 C         140.5317  140.1317  169.0164 C.3     1  UNL1        0.1762
@<TRIPOS>BOND
     1     7     8    1
     2     8     9   ar
     3     9    10   ar
     4    10     1    1
     5     1     2   am
     6     2     3    2
     7     2     4   am
     8     4    20    1
     9    20    21   ar
    10    21    22   ar
    11    22    23   ar
    12    23    26    1
    13    26    27    2
    14    27    28    1
    15    28    29    2
    16    29    30    1
    17    30    31    2
    18    31    32    1
    19    32    33    2
    20    33    34    1
    21    33    35    1
    22    23    24   ar
    23    24    25   ar
    24    10    11   ar
    25    11    12   ar
    26    12    13   ar
    27    13    14    1
    28    14    15    1
    29    15    16    1
    30    16    17    1
    31    17    18    1
    32    18    19    1
    33    13     8   ar
    34    19    14    1
    35    25    20   ar
    36    35    26    1
    37    35    30    1
    38     1     5    1
    39     4     6    1
@<TRIPOS>MOLECULE
*****
 35 39 0 0 0
SMALL
GASTEIGER

@<TRIPOS>ATOM
      1 N         144.4263  139.2213  160.9192 N.am    1  UNL1       -0.2681
      2 C         143.7843  139.4852  162.2490 C.2     1  UNL1        0.3082
      3 O         142.3569  139.9413  162.3154 O.2     1  UNL1       -0.2522
      4 N         144.5698  139.2931  163.5123 N.am    1  UNL1       -0.2681
      5 H         145.3632  138.9220  160.8756 H       1  UNL1        0.1564
      6 H         145.5067  138.9938  163.4687 H       1  UNL1        0.1564
      7 C         141.3411  137.3051  157.2031 C.3     1  UNL1        0.0324
      8 C         142.0982  138.4554  157.7978 C.ar    1  UNL1       -0.0073
      9 C         142.8837  138.2632  159.0611 C.ar    1  UNL1        0.0117
     10 C         143.6408  139.4135  159.6558 C.ar    1  UNL1        0.0513
     11 C         143.6124  140.7559  158.9872 C.ar    1  UNL1        0.0160
     12 C         142.8269  140.9481  157.7238 C.ar    1  UNL1        0.0155
     13 C         142.0698  139.7979  157.1291 C.ar    1  UNL1        0.0440
     14 N         141.2843  139.9900  155.8658 N.pl3   1  UNL1       -0.3030
     15 C         141.9178  139.7003  154.5373 C.3     1  UNL1        0.1231
     16 C         141.1323  139.8925  153.2740 C.3     1  UNL1        0.1636
     17 O         139.7133  140.3743  153.3391 O.3     1  UNL1       -0.3501
     18 C         139.0798  140.6640  154.6675 C.3     1  UNL1        0.1636
     19 C         139.8653  140.4719  155.9309 C.3     1  UNL1        0.1231
     20 C         143.9278  139.5570  164.8420 C.ar    1  UNL1        0.0516
     21 C         143.4710  140.9421  165.1927 C.ar    1  UNL1        0.0147
     22 C         142.8291  141.2060  166.5224 C.ar    1  UNL1        0.0010
     23 C         142.6438  140.0848  167.5015 C.ar    1  UNL1       -0.0029
     24 C         143.1006  138.6998  167.1509 C.ar    1  UNL1        0.0010
     25 C         143.7426  138.4358  165.8212 C.ar    1  UNL1        0.0147
     26 C         142.0018  140.3488  168.8313 C.2     1  UNL1       -0.0014
     27 C         142.8311  140.8418  169.9798 C.2     1  UNL1        0.0472
     28 C         142.1891  141.1057  171.3095 C.2     1  UNL1        0.2354
     29 N         140.7178  140.8766  171.4907 N.2     1  UNL1       -0.0320
     30 C         139.8885  140.3836  170.3421 C.2     1  UNL1        0.3869
     31 N         138.4269  140.0687  170.2218 N.2     1  UNL1        0.0818
     32 N         138.1656  139.6101  168.8177 N.2     1  UNL1       -0.0421
     33 C         139.4657  139.6416  168.0702 C.2     1  UNL1        0.0992
     34 C         139.6659  139.2618  166.6330 C.3     1  UNL1        0.0523
     35 C         140.5305  140.1197  169.0124 C.3     1  UNL1        0.1762
@<TRIPOS>BOND
     1     7     8    1
     2     8     9   ar
     3     9    10   ar
     4    10     1    1
     5     1     2   am
     6     2     3    2
     7     2     4   am
     8     4    20    1
     9    20    21   ar
    10    21    22   ar
    11    22    23   ar
    12    23    26    1
    13    26    27    2
    14    27    28    1
    15    28    29    2
    16    29    30    1
    17    30    31    2
    18    31    32    1
    19    32    33    2
    20    33    34    1
    21    33    35    1
    22    23    24   ar
    23    24    25   ar
    24    10    11   ar
    25    11    12   ar
    26    12    13   ar
    27    13    14    1
    28    14    15    1
    29    15    16    1
    30    16    17    1
    31    17    18    1
    32    18    19    1
    33    13     8   ar
    34    19    14    1
    35    25    20   ar
    36    35    26    1
    37    35    30    1
    38     1     5    1
    39     4     6    1
@<TRIPOS>MOLECULE
*****
 35 39 0 0 0
SMALL
GASTEIGER

@<TRIPOS>ATOM
      1 N         141.7866  145.3388  159.6264 N.am    1  UNL1       -0.2681
      2 C         141.3898  144.6541  160.9007 C.2     1  UNL1        0.3082
      3 O         140.2699  143.6561  160.8985 O.2     1  UNL1       -0.2522
      4 N         142.1127  144.9674  162.1770 N.am    1  UNL1       -0.2681
      5 H         142.5216  145.9939  159.6278 H       1  UNL1        0.1564
      6 H         142.8477  145.6224  162.1784 H       1  UNL1        0.1564
      7 C         138.8917  146.8857  155.5982 C.3     1  UNL1        0.0324
      8 C         139.6162  145.7990  156.3359 C.ar    1  UNL1       -0.0073
      9 C         140.3392  146.1123  157.6123 C.ar    1  UNL1        0.0117
     10 C         141.0637  145.0256  158.3500 C.ar    1  UNL1        0.0513
     11 C         141.0652  143.6257  157.8114 C.ar    1  UNL1        0.0160
     12 C         140.3422  143.3123  156.5350 C.ar    1  UNL1        0.0155
     13 C         139.6177  144.3990  155.7972 C.ar    1  UNL1        0.0440
     14 N         138.8947  144.0858  154.5209 N.pl3   1  UNL1       -0.3030
     15 C         139.6655  143.9095  153.2462 C.3     1  UNL1        0.1231
     16 C         138.9424  143.5962  151.9698 C.3     1  UNL1        0.1636
     17 O         137.4487  143.4592  151.9681 O.3     1  UNL1       -0.3501
     18 C         136.6780  143.6356  153.2428 C.3     1  UNL1        0.1636
     19 C         137.4009  143.9488  154.5192 C.3     1  UNL1        0.1231
     20 C         141.7159  144.2826  163.4512 C.ar    1  UNL1        0.0516
     21 C         140.4029  144.6076  164.0999 C.ar    1  UNL1        0.0147
     22 C         140.0061  143.9229  165.3740 C.ar    1  UNL1        0.0010
     23 C         140.9221  142.9132  165.9996 C.ar    1  UNL1       -0.0029
     24 C         142.2349  142.5881  165.3511 C.ar    1  UNL1        0.0010
     25 C         142.6319  143.2729  164.0768 C.ar    1  UNL1        0.0147
     26 C         140.5251  142.2284  167.2739 C.2     1  UNL1       -0.0014
     27 C         140.9492  142.7982  168.5951 C.2     1  UNL1        0.0472
     28 C         140.5523  142.1134  169.8692 C.2     1  UNL1        0.2354
     29 N         139.7313  140.8589  169.8222 N.2     1  UNL1       -0.0320
     30 C         139.3072  140.2892  168.5011 C.2     1  UNL1        0.3869
     31 N         138.5009  139.0759  168.1435 N.2     1  UNL1        0.0818
     32 N         138.3995  139.0108  166.6483 N.2     1  UNL1       -0.0421
     33 C         139.1432  140.1838  166.0818 C.2     1  UNL1        0.0992
     34 C         139.2986  140.5096  164.6259 C.3     1  UNL1        0.0523
     35 C         139.7042  140.9739  167.2269 C.3     1  UNL1        0.1762
@<TRIPOS>BOND
     1     7     8    1
     2     8     9   ar
     3     9    10   ar
     4    10     1    1
     5     1     2   am
     6     2     3    2
     7     2     4   am
     8     4    20    1
     9    20    21   ar
    10    21    22   ar
    11    22    23   ar
    12    23    26    1
    13    26    27    2
    14    27    28    1
    15    28    29    2
    16    29    30    1
    17    30    31    2
    18    31    32    1
    19    32    33    2
    20    33    34    1
    21    33    35    1
    22    23    24   ar
    23    24    25   ar
    24    10    11   ar
    25    11    12   ar
    26    12    13   ar
    27    13    14    1
    28    14    15    1
    29    15    16    1
    30    16    17    1
    31    17    18    1
    32    18    19    1
    33    13     8   ar
    34    19    14    1
    35    25    20   ar
    36    35    26    1
    37    35    30    1
    38     1     5    1
    39     4     6    1
@<TRIPOS>MOLECULE
*****
 35 39 0 0 0
SMALL
GASTEIGER

@<TRIPOS>ATOM
      1 N         141.2759  142.1334  159.6861 N.am    1  UNL1       -0.2681
      2 C         141.1834  142.3491  161.1677 C.2     1  UNL1        0.3082
      3 O         140.7881  143.6919  161.7068 O.2     1  UNL1       -0.2522
      4 N         141.4863  141.2221  162.1100 N.am    1  UNL1       -0.2681
      5 H         141.5353  141.2521  159.3322 H       1  UNL1        0.1564
      6 H         141.7457  140.3408  161.7562 H       1  UNL1        0.1564
      7 C         138.3896  144.1531  155.8665 C.3     1  UNL1        0.0324
      8 C         139.5299  144.2702  156.8339 C.ar    1  UNL1       -0.0073
      9 C         139.8327  143.1432  157.7763 C.ar    1  UNL1        0.0117
     10 C         140.9730  143.2604  158.7438 C.ar    1  UNL1        0.0513
     11 C         141.8104  144.5046  158.7689 C.ar    1  UNL1        0.0160
     12 C         141.5076  145.6317  157.8265 C.ar    1  UNL1        0.0155
     13 C         140.3673  145.5145  156.8590 C.ar    1  UNL1        0.0440
     14 N         140.0645  146.6415  155.9167 N.pl3   1  UNL1       -0.3030
     15 C         139.0978  147.7159  156.3184 C.3     1  UNL1        0.1231
     16 C         138.7950  148.8429  155.3760 C.3     1  UNL1        0.1636
     17 O         139.4588  148.8956  154.0319 O.3     1  UNL1       -0.3501
     18 C         140.4254  147.8213  153.6302 C.3     1  UNL1        0.1636
     19 C         140.7283  146.6942  154.5725 C.3     1  UNL1        0.1231
     20 C         141.3938  141.4378  163.5915 C.ar    1  UNL1        0.0516
     21 C         140.2147  140.9103  164.3542 C.ar    1  UNL1        0.0147
     22 C         140.1222  141.1260  165.8356 C.ar    1  UNL1        0.0010
     23 C         141.2088  141.8693  166.5546 C.ar    1  UNL1       -0.0029
     24 C         142.3878  142.3969  165.7920 C.ar    1  UNL1        0.0010
     25 C         142.4803  142.1812  164.3105 C.ar    1  UNL1        0.0147
     26 C         141.1163  142.0851  168.0362 C.2     1  UNL1       -0.0014
     27 C         140.3861  143.2790  168.5761 C.2     1  UNL1        0.0472
     28 C         140.2936  143.4946  170.0576 C.2     1  UNL1        0.2354
     29 N         140.9313  142.5165  170.9991 N.2     1  UNL1       -0.0320
     30 C         141.6614  141.3226  170.4592 C.2     1  UNL1        0.3869
     31 N         142.3839  140.1966  171.1376 N.2     1  UNL1        0.0818
     32 N         142.9229  139.2850  170.0753 N.2     1  UNL1       -0.0421
     33 C         142.5336  139.8476  168.7404 C.2     1  UNL1        0.0992
     34 C         142.8656  139.2549  167.4031 C.3     1  UNL1        0.0523
     35 C         141.7539  141.1069  168.9777 C.3     1  UNL1        0.1762
@<TRIPOS>BOND
     1     7     8    1
     2     8     9   ar
     3     9    10   ar
     4    10     1    1
     5     1     2   am
     6     2     3    2
     7     2     4   am
     8     4    20    1
     9    20    21   ar
    10    21    22   ar
    11    22    23   ar
    12    23    26    1
    13    26    27    2
    14    27    28    1
    15    28    29    2
    16    29    30    1
    17    30    31    2
    18    31    32    1
    19    32    33    2
    20    33    34    1
    21    33    35    1
    22    23    24   ar
    23    24    25   ar
    24    10    11   ar
    25    11    12   ar
    26    12    13   ar
    27    13    14    1
    28    14    15    1
    29    15    16    1
    30    16    17    1
    31    17    18    1
    32    18    19    1
    33    13     8   ar
    34    19    14    1
    35    25    20   ar
    36    35    26    1
    37    35    30    1
    38     1     5    1
    39     4     6    1
@<TRIPOS>MOLECULE
*****
 35 39 0 0 0
SMALL
GASTEIGER

@<TRIPOS>ATOM
      1 N         140.2950  141.3993  159.6836 N.am    1  UNL1       -0.2681
      2 C         140.5208  141.2779  161.1616 C.2     1  UNL1        0.3082
      3 O         141.1576  140.0417  161.7240 O.2     1  UNL1       -0.2522
      4 N         140.1098  142.3927  162.0771 N.am    1  UNL1       -0.2681
      5 H         139.8771  142.2106  159.3145 H       1  UNL1        0.1564
      6 H         139.6919  143.2041  161.7080 H       1  UNL1        0.1564
      7 C         143.7100  139.3386  156.3532 C.3     1  UNL1        0.0324
      8 C         142.4135  139.2541  157.1029 C.ar    1  UNL1       -0.0073
      9 C         142.0025  140.3689  158.0184 C.ar    1  UNL1        0.0117
     10 C         140.7060  140.2844  158.7681 C.ar    1  UNL1        0.0513
     11 C         139.8206  139.0851  158.6023 C.ar    1  UNL1        0.0160
     12 C         140.2316  137.9702  157.6868 C.ar    1  UNL1        0.0155
     13 C         141.5280  138.0547  156.9371 C.ar    1  UNL1        0.0440
     14 N         141.9390  136.9399  156.0216 N.pl3   1  UNL1       -0.3030
     15 C         141.4634  136.9236  154.5991 C.3     1  UNL1        0.1231
     16 C         141.8744  135.8087  153.6836 C.3     1  UNL1        0.1636
     17 O         142.7611  134.7102  154.1905 O.3     1  UNL1       -0.3501
     18 C         143.2367  134.7265  155.6131 C.3     1  UNL1        0.1636
     19 C         142.8257  135.8413  156.5286 C.3     1  UNL1        0.1231
     20 C         140.3356  142.2714  163.5550 C.ar    1  UNL1        0.0516
     21 C         141.5448  142.8988  164.1831 C.ar    1  UNL1        0.0147
     22 C         141.7706  142.7774  165.6610 C.ar    1  UNL1        0.0010
     23 C         140.7873  142.0286  166.5109 C.ar    1  UNL1       -0.0029
     24 C         139.5782  141.4012  165.8830 C.ar    1  UNL1        0.0010
     25 C         139.3523  141.5226  164.4050 C.ar    1  UNL1        0.0147
     26 C         141.0131  141.9072  167.9889 C.2     1  UNL1       -0.0014
     27 C         140.4563  142.9429  168.9202 C.2     1  UNL1        0.0472
     28 C         140.6822  142.8215  170.3981 C.2     1  UNL1        0.2354
     29 N         141.4648  141.6644  170.9447 N.2     1  UNL1       -0.0320
     30 C         142.0216  140.6288  170.0134 C.2     1  UNL1        0.3869
     31 N         142.8269  139.3873  170.2587 N.2     1  UNL1        0.0818
     32 N         143.0987  138.7414  168.9325 N.2     1  UNL1       -0.0421
     33 C         142.4614  139.5837  167.8674 C.2     1  UNL1        0.0992
     34 C         142.4856  139.3080  166.3932 C.3     1  UNL1        0.0523
     35 C         141.7958  140.7502  168.5355 C.3     1  UNL1        0.1762
@<TRIPOS>BOND
     1     7     8    1
     2     8     9   ar
     3     9    10   ar
     4    10     1    1
     5     1     2   am
     6     2     3    2
     7     2     4   am
     8     4    20    1
     9    20    21   ar
    10    21    22   ar
    11    22    23   ar
    12    23    26    1
    13    26    27    2
    14    27    28    1
    15    28    29    2
    16    29    30    1
    17    30    31    2
    18    31    32    1
    19    32    33    2
    20    33    34    1
    21    33    35    1
    22    23    24   ar
    23    24    25   ar
    24    10    11   ar
    25    11    12   ar
    26    12    13   ar
    27    13    14    1
    28    14    15    1
    29    15    16    1
    30    16    17    1
    31    17    18    1
    32    18    19    1
    33    13     8   ar
    34    19    14    1
    35    25    20   ar
    36    35    26    1
    37    35    30    1
    38     1     5    1
    39     4     6    1
@<TRIPOS>MOLECULE
*****
 35 39 0 0 0
SMALL
GASTEIGER

@<TRIPOS>ATOM
      1 N         142.1351  142.0801  160.2876 N.am    1  UNL1       -0.2681
      2 C         141.7969  141.9465  161.7429 C.2     1  UNL1        0.3082
      3 O         140.3862  141.6556  162.1614 O.2     1  UNL1       -0.2522
      4 N         142.8695  142.1039  162.7796 N.am    1  UNL1       -0.2681
      5 H         143.0610  142.2711  160.0129 H       1  UNL1        0.1564
      6 H         143.7954  142.2948  162.5049 H       1  UNL1        0.1564
      7 C         139.5642  139.1086  156.8876 C.3     1  UNL1        0.0324
      8 C         139.7771  140.4371  157.5509 C.ar    1  UNL1       -0.0073
      9 C         140.8496  140.5944  158.5876 C.ar    1  UNL1        0.0117
     10 C         141.0625  141.9228  159.2509 C.ar    1  UNL1        0.0513
     11 C         140.2029  143.0939  158.8775 C.ar    1  UNL1        0.0160
     12 C         139.1303  142.9366  157.8407 C.ar    1  UNL1        0.0155
     13 C         138.9173  141.6082  157.1774 C.ar    1  UNL1        0.0440
     14 N         137.8448  141.4509  156.1407 N.pl3   1  UNL1       -0.3030
     15 C         138.1659  141.6639  154.6910 C.3     1  UNL1        0.1231
     16 C         137.0932  141.5066  153.6543 C.3     1  UNL1        0.1636
     17 O         135.6996  141.1362  154.0672 O.3     1  UNL1       -0.3501
     18 C         135.3785  140.9231  155.5169 C.3     1  UNL1        0.1636
     19 C         136.4511  141.0805  156.5536 C.3     1  UNL1        0.1231
     20 C         142.5313  141.9703  164.2348 C.ar    1  UNL1        0.0516
     21 C         143.0845  140.8259  165.0315 C.ar    1  UNL1        0.0147
     22 C         142.7463  140.6924  166.4867 C.ar    1  UNL1        0.0010
     23 C         141.8549  141.7031  167.1454 C.ar    1  UNL1       -0.0029
     24 C         141.3017  142.8474  166.3489 C.ar    1  UNL1        0.0010
     25 C         141.6399  142.9810  164.8935 C.ar    1  UNL1        0.0147
     26 C         141.5167  141.5694  168.6007 C.2     1  UNL1       -0.0014
     27 C         142.3947  142.2071  169.6363 C.2     1  UNL1        0.0472
     28 C         142.0565  142.0734  171.0915 C.2     1  UNL1        0.2354
     29 N         140.8403  141.3021  171.5111 N.2     1  UNL1       -0.0320
     30 C         139.9623  140.6645  170.4755 C.2     1  UNL1        0.3869
     31 N         138.7080  139.8496  170.5869 N.2     1  UNL1        0.0818
     32 N         138.2709  139.4796  169.2005 N.2     1  UNL1       -0.0421
     33 C         139.2551  140.0659  168.2322 C.2     1  UNL1        0.0992
     34 C         139.2032  139.9416  166.7383 C.3     1  UNL1        0.0523
     35 C         140.3005  140.7982  169.0203 C.3     1  UNL1        0.1762
@<TRIPOS>BOND
     1     7     8    1
     2     8     9   ar
     3     9    10   ar
     4    10     1    1
     5     1     2   am
     6     2     3    2
     7     2     4   am
     8     4    20    1
     9    20    21   ar
    10    21    22   ar
    11    22    23   ar
    12    23    26    1
    13    26    27    2
    14    27    28    1
    15    28    29    2
    16    29    30    1
    17    30    31    2
    18    31    32    1
    19    32    33    2
    20    33    34    1
    21    33    35    1
    22    23    24   ar
    23    24    25   ar
    24    10    11   ar
    25    11    12   ar
    26    12    13   ar
    27    13    14    1
    28    14    15    1
    29    15    16    1
    30    16    17    1
    31    17    18    1
    32    18    19    1
    33    13     8   ar
    34    19    14    1
    35    25    20   ar
    36    35    26    1
    37    35    30    1
    38     1     5    1
    39     4     6    1
@<TRIPOS>MOLECULE
*****
 35 39 0 0 0
SMALL
GASTEIGER

@<TRIPOS>ATOM
      1 N         142.0865  140.3276  159.7637 N.am    1  UNL1       -0.2681
      2 C         142.2699  140.6481  161.2176 C.2     1  UNL1        0.3082
      3 O         143.4635  141.4377  161.6668 O.2     1  UNL1       -0.2522
      4 N         141.2597  140.1790  162.2222 N.am    1  UNL1       -0.2681
      5 H         141.3031  139.8094  159.4689 H       1  UNL1        0.1564
      6 H         140.4762  139.6607  161.9274 H       1  UNL1        0.1564
      7 C         144.9299  139.4645  155.5011 C.3     1  UNL1        0.0324
      8 C         144.5185  140.3652  156.6278 C.ar    1  UNL1       -0.0073
      9 C         143.5082  139.8961  157.6324 C.ar    1  UNL1        0.0117
     10 C         143.0968  140.7968  158.7591 C.ar    1  UNL1        0.0513
     11 C         143.6956  142.1666  158.8812 C.ar    1  UNL1        0.0160
     12 C         144.7059  142.6358  157.8766 C.ar    1  UNL1        0.0155
     13 C         145.1173  141.7351  156.7499 C.ar    1  UNL1        0.0440
     14 N         146.1276  142.2042  155.7453 N.pl3   1  UNL1       -0.3030
     15 C         145.6908  143.0306  154.5721 C.3     1  UNL1        0.1231
     16 C         146.7012  143.4998  153.5675 C.3     1  UNL1        0.1636
     17 O         148.1482  143.1425  153.7360 O.3     1  UNL1       -0.3501
     18 C         148.5849  142.3160  154.9092 C.3     1  UNL1        0.1636
     19 C         147.5747  141.8469  155.9138 C.3     1  UNL1        0.1231
     20 C         141.4430  140.4995  163.6760 C.ar    1  UNL1        0.0516
     21 C         140.8480  141.7516  164.2489 C.ar    1  UNL1        0.0147
     22 C         141.0314  142.0721  165.7027 C.ar    1  UNL1        0.0010
     23 C         141.8098  141.1405  166.5837 C.ar    1  UNL1       -0.0029
     24 C         142.4048  139.8884  166.0109 C.ar    1  UNL1        0.0010
     25 C         142.2215  139.5678  164.5570 C.ar    1  UNL1        0.0147
     26 C         141.9932  141.4610  168.0376 C.2     1  UNL1       -0.0014
     27 C         143.1923  142.2415  168.4881 C.2     1  UNL1        0.0472
     28 C         143.3756  142.5620  169.9420 C.2     1  UNL1        0.2354
     29 N         142.3598  142.1020  170.9453 N.2     1  UNL1       -0.0320
     30 C         141.1607  141.3215  170.4948 C.2     1  UNL1        0.3869
     31 N         140.0012  140.7394  171.2475 N.2     1  UNL1        0.0818
     32 N         139.1012  140.0591  170.2589 N.2     1  UNL1       -0.0421
     33 C         139.7045  140.2208  168.8951 C.2     1  UNL1        0.0992
     34 C         139.1350  139.6947  167.6111 C.3     1  UNL1        0.0523
     35 C         140.9774  141.0010  169.0409 C.3     1  UNL1        0.1762
@<TRIPOS>BOND
     1     7     8    1
     2     8     9   ar
     3     9    10   ar
     4    10     1    1
     5     1     2   am
     6     2     3    2
     7     2     4   am
     8     4    20    1
     9    20    21   ar
    10    21    22   ar
    11    22    23   ar
    12    23    26    1
    13    26    27    2
    14    27    28    1
    15    28    29    2
    16    29    30    1
    17    30    31    2
    18    31    32    1
    19    32    33    2
    20    33    34    1
    21    33    35    1
    22    23    24   ar
    23    24    25   ar
    24    10    11   ar
    25    11    12   ar
    26    12    13   ar
    27    13    14    1
    28    14    15    1
    29    15    16    1
    30    16    17    1
    31    17    18    1
    32    18    19    1
    33    13     8   ar
    34    19    14    1
    35    25    20   ar
    36    35    26    1
    37    35    30    1
    38     1     5    1
    39     4     6    1
@<TRIPOS>MOLECULE
*****
 35 39 0 0 0
SMALL
GASTEIGER

@<TRIPOS>ATOM
      1 N         144.5989  139.1959  163.6636 N.am    1  UNL1       -0.2681
      2 C         143.7983  139.2400  162.3958 C.2     1  UNL1        0.3082
      3 O         142.3334  139.5591  162.4447 O.2     1  UNL1       -0.2522
      4 N         144.4625  138.9650  161.0793 N.am    1  UNL1       -0.2681
      5 H         145.5604  138.9864  163.6315 H       1  UNL1        0.1564
      6 H         145.4239  138.7555  161.0473 H       1  UNL1        0.1564
      7 C         142.2093  142.4867  166.8977 C.3     1  UNL1        0.0324
      8 C         142.7399  141.1163  166.5971 C.ar    1  UNL1       -0.0073
      9 C         143.4041  140.8413  165.2806 C.ar    1  UNL1        0.0117
     10 C         143.9348  139.4709  164.9800 C.ar    1  UNL1        0.0513
     11 C         143.8012  138.3754  165.9959 C.ar    1  UNL1        0.0160
     12 C         143.1370  138.6504  167.3125 C.ar    1  UNL1        0.0155
     13 C         142.6063  140.0208  167.6131 C.ar    1  UNL1        0.0440
     14 N         141.9421  140.2958  168.9296 N.pl3   1  UNL1       -0.3030
     15 C         140.4767  140.0257  169.1012 C.3     1  UNL1        0.1231
     16 C         139.8125  140.3008  170.4178 C.3     1  UNL1        0.1636
     17 O         140.6138  140.8458  171.5626 O.3     1  UNL1       -0.3501
     18 C         142.0792  141.1159  171.3910 C.3     1  UNL1        0.1636
     19 C         142.7434  140.8409  170.0745 C.3     1  UNL1        0.1231
     20 C         143.6618  139.0091  159.8117 C.ar    1  UNL1        0.0516
     21 C         143.6317  140.2616  158.9868 C.ar    1  UNL1        0.0147
     22 C         142.8310  140.3057  157.7192 C.ar    1  UNL1        0.0010
     23 C         142.0604  139.0973  157.2764 C.ar    1  UNL1       -0.0029
     24 C         142.0906  137.8448  158.1012 C.ar    1  UNL1        0.0010
     25 C         142.8913  137.8007  159.3689 C.ar    1  UNL1        0.0147
     26 C         141.2598  139.1415  156.0086 C.2     1  UNL1       -0.0014
     27 C         141.9066  138.7946  154.7005 C.2     1  UNL1        0.0472
     28 C         141.1060  138.8388  153.4329 C.2     1  UNL1        0.2354
     29 N         139.6584  139.2298  153.4734 N.2     1  UNL1       -0.0320
     30 C         139.0115  139.5766  154.7815 C.2     1  UNL1        0.3869
     31 N         137.6140  139.9954  155.1303 N.2     1  UNL1        0.0818
     32 N         137.5510  140.2101  156.6136 N.2     1  UNL1       -0.0421
     33 C         138.9096  139.9240  157.1815 C.2     1  UNL1        0.0992
     34 C         139.2974  140.0136  158.6277 C.3     1  UNL1        0.0523
     35 C         139.8122  139.5325  156.0491 C.3     1  UNL1        0.1762
@<TRIPOS>BOND
     1     7     8    1
     2     8     9   ar
     3     9    10   ar
     4    10     1    1
     5     1     2   am
     6     2     3    2
     7     2     4   am
     8     4    20    1
     9    20    21   ar
    10    21    22   ar
    11    22    23   ar
    12    23    26    1
    13    26    27    2
    14    27    28    1
    15    28    29    2
    16    29    30    1
    17    30    31    2
    18    31    32    1
    19    32    33    2
    20    33    34    1
    21    33    35    1
    22    23    24   ar
    23    24    25   ar
    24    10    11   ar
    25    11    12   ar
    26    12    13   ar
    27    13    14    1
    28    14    15    1
    29    15    16    1
    30    16    17    1
    31    17    18    1
    32    18    19    1
    33    13     8   ar
    34    19    14    1
    35    25    20   ar
    36    35    26    1
    37    35    30    1
    38     1     5    1
    39     4     6    1
@<TRIPOS>MOLECULE
*****
 35 39 0 0 0
SMALL
GASTEIGER

@<TRIPOS>ATOM
      1 N         144.0715  136.8818  155.9515 N.am    1  UNL1       -0.2681
      2 C         143.2423  137.8208  156.7768 C.2     1  UNL1        0.3082
      3 O         141.8600  137.4237  157.2029 O.2     1  UNL1       -0.2522
      4 N         143.7955  139.1566  157.1759 N.am    1  UNL1       -0.2681
      5 H         144.9787  137.1424  155.6718 H       1  UNL1        0.1564
      6 H         144.7028  139.4172  156.8962 H       1  UNL1        0.1564
      7 C         143.3900  131.8223  156.9191 C.3     1  UNL1        0.0324
      8 C         143.1775  133.0162  156.0362 C.ar    1  UNL1       -0.0073
      9 C         143.7307  134.3521  156.4353 C.ar    1  UNL1        0.0117
     10 C         143.5183  135.5459  155.5524 C.ar    1  UNL1        0.0513
     11 C         142.7527  135.4039  154.2703 C.ar    1  UNL1        0.0160
     12 C         142.1995  134.0680  153.8712 C.ar    1  UNL1        0.0155
     13 C         142.4119  132.8741  154.7541 C.ar    1  UNL1        0.0440
     14 N         141.8587  131.5382  154.3550 N.pl3   1  UNL1       -0.3030
     15 C         140.4828  131.1344  154.7951 C.3     1  UNL1        0.1231
     16 C         139.9296  129.7984  154.3959 C.3     1  UNL1        0.1636
     17 O         140.7524  128.8663  153.5567 O.3     1  UNL1       -0.3501
     18 C         142.1283  129.2702  153.1166 C.3     1  UNL1        0.1636
     19 C         142.6815  130.6061  153.5157 C.3     1  UNL1        0.1231
     20 C         142.9664  140.0955  158.0011 C.ar    1  UNL1        0.0516
     21 C         141.8363  140.8520  157.3682 C.ar    1  UNL1        0.0147
     22 C         141.0071  141.7909  158.1935 C.ar    1  UNL1        0.0010
     23 C         141.3081  141.9732  159.6516 C.ar    1  UNL1       -0.0029
     24 C         142.4381  141.2167  160.2845 C.ar    1  UNL1        0.0010
     25 C         143.2673  140.2778  159.4593 C.ar    1  UNL1        0.0147
     26 C         140.4789  142.9121  160.4769 C.2     1  UNL1       -0.0014
     27 C         140.8718  144.3550  160.5933 C.2     1  UNL1        0.0472
     28 C         140.0426  145.2939  161.4185 C.2     1  UNL1        0.2354
     29 N         138.8205  144.7898  162.1273 N.2     1  UNL1       -0.0320
     30 C         138.4276  143.3469  162.0109 C.2     1  UNL1        0.3869
     31 N         137.2846  142.5679  162.5911 N.2     1  UNL1        0.0818
     32 N         137.4074  141.1476  162.1245 N.2     1  UNL1       -0.0421
     33 C         138.6262  141.0488  161.2559 C.2     1  UNL1        0.0992
     34 C         139.1267  139.8085  160.5767 C.3     1  UNL1        0.0523
     35 C         139.2568  142.4081  161.1857 C.3     1  UNL1        0.1762
@<TRIPOS>BOND
     1     7     8    1
     2     8     9   ar
     3     9    10   ar
     4    10     1    1
     5     1     2   am
     6     2     3    2
     7     2     4   am
     8     4    20    1
     9    20    21   ar
    10    21    22   ar
    11    22    23   ar
    12    23    26    1
    13    26    27    2
    14    27    28    1
    15    28    29    2
    16    29    30    1
    17    30    31    2
    18    31    32    1
    19    32    33    2
    20    33    34    1
    21    33    35    1
    22    23    24   ar
    23    24    25   ar
    24    10    11   ar
    25    11    12   ar
    26    12    13   ar
    27    13    14    1
    28    14    15    1
    29    15    16    1
    30    16    17    1
    31    17    18    1
    32    18    19    1
    33    13     8   ar
    34    19    14    1
    35    25    20   ar
    36    35    26    1
    37    35    30    1
    38     1     5    1
    39     4     6    1
