@<TRIPOS>MOLECULE
*****
 42 45 0 0 0
SMALL
GASTEIGER

@<TRIPOS>ATOM
      1 C         140.7409  140.6991  163.2230 C.3     1  UNL1        0.0807
      2 C         140.4155  140.6018  164.6841 C.ar    1  UNL1        0.0375
      3 C         140.6469  141.7793  165.5840 C.ar    1  UNL1        0.0023
      4 C         140.3215  141.6820  167.0450 C.ar    1  UNL1        0.0181
      5 C         140.5529  142.8595  167.9450 C.ar    1  UNL1        0.0082
      6 C         140.2274  142.7622  169.4061 C.ar    1  UNL1        0.0347
      7 BR        140.4588  143.9397  170.3060 Br      1  UNL1       -0.0490
      8 C         139.6706  141.4874  169.9671 C.ar    1  UNL1        0.0082
      9 C         139.4392  140.3099  169.0672 C.ar    1  UNL1        0.0197
     10 C         139.7646  140.4072  167.6062 C.ar    1  UNL1        0.0844
     11 N         139.5332  139.2297  166.7062 N.ar    1  UNL1       -0.2119
     12 C         139.8586  139.3270  165.2451 C.ar    1  UNL1        0.2211
     13 O         139.6272  138.1495  164.3452 O.3     1  UNL1       -0.4563
     14 C         140.6096  137.0161  164.3254 C.3     1  UNL1        0.2542
     15 C         141.8408  139.8608  162.6421 C.ar    1  UNL1        0.0213
     16 C         143.1689  139.7813  163.3350 C.ar    1  UNL1       -0.0007
     17 C         144.2688  138.9430  162.7541 C.ar    1  UNL1        0.0030
     18 C         144.0407  138.1842  161.4804 C.ar    1  UNL1        0.0400
     19 C         142.7127  138.2637  160.7876 C.ar    1  UNL1        0.1721
     20 C         141.6127  139.1021  161.3685 C.ar    1  UNL1        0.1687
     21 O         142.4846  137.5050  159.5140 O.3     1  UNL1       -0.4684
     22 C         142.6307  138.1980  158.1917 C.3     1  UNL1        0.2526
     23 O         140.2847  139.1816  160.6757 O.3     1  UNL1       -0.4687
     24 C         139.2911  138.0682  160.8286 C.3     1  UNL1        0.2526
     25 C         139.9664  141.6347  162.3428 C.3     1  UNL1        0.1162
     26 O         138.7194  140.8402  162.5955 O.3     1  UNL1       -0.3820
     27 H         137.9784  141.2394  162.1133 H       1  UNL1        0.2107
     28 C         142.9794  143.3803  160.4389 C.ar    1  UNL1        0.2272
     29 C         141.7324  142.5857  160.6915 C.ar    1  UNL1        0.0559
     30 C         141.2133  142.4292  162.0901 C.ar    1  UNL1        0.0117
     31 C         141.9412  143.0673  163.2360 C.ar    1  UNL1        0.0559
     32 C         143.1882  143.8618  162.9833 C.ar    1  UNL1        0.2272
     33 N         143.7072  144.0183  161.5847 N.ar    1  UNL1       -0.1767
     34 C         144.4276  142.5088  158.4657 C.3     1  UNL1        0.2542
     35 O         143.4984  143.5367  159.0402 O.3     1  UNL1       -0.4561
     36 O         143.9161  144.4998  164.1292 O.3     1  UNL1       -0.4561
     37 C         144.4652  143.6490  165.2359 C.3     1  UNL1        0.2542
     38 C         139.1919  142.5704  161.4626 C.3     1  UNL1        0.0491
     39 C         138.2949  143.6056  162.0742 C.3     1  UNL1        0.0750
     40 N         138.8854  144.7459  162.8494 N.3     1  UNL1       -0.2702
     41 C         139.5775  145.8643  162.1283 C.3     1  UNL1        0.0897
     42 C         138.7837  144.7678  164.3458 C.3     1  UNL1        0.0897
@<TRIPOS>BOND
     1    34    35    1
     2    35    28    1
     3    28    29   ar
     4    29    30   ar
     5    30    25    1
     6    25    26    1
     7    25    38    1
     8    38    39    1
     9    39    40    1
    10    40    41    1
    11    40    42    1
    12    25     1    1
    13     1     2    1
    14     2     3   ar
    15     3     4   ar
    16     4     5   ar
    17     5     6   ar
    18     6     7    1
    19     6     8   ar
    20     8     9   ar
    21     9    10   ar
    22    10    11   ar
    23    11    12   ar
    24    12    13    1
    25    13    14    1
    26     1    15    1
    27    15    16   ar
    28    16    17   ar
    29    17    18   ar
    30    18    19   ar
    31    19    21    1
    32    21    22    1
    33    19    20   ar
    34    20    23    1
    35    23    24    1
    36    30    31   ar
    37    31    32   ar
    38    32    36    1
    39    36    37    1
    40    32    33   ar
    41    33    28   ar
    42    12     2   ar
    43    20    15   ar
    44    10     4   ar
    45    26    27    1
@<TRIPOS>MOLECULE
*****
 42 45 0 0 0
SMALL
GASTEIGER

@<TRIPOS>ATOM
      1 C         140.7318  140.6371  163.1420 C.3     1  UNL1        0.0807
      2 C         140.4352  140.5453  164.6096 C.ar    1  UNL1        0.0375
      3 C         140.6396  141.7408  165.4922 C.ar    1  UNL1        0.0023
      4 C         140.3430  141.6491  166.9597 C.ar    1  UNL1        0.0181
      5 C         140.5474  142.8446  167.8423 C.ar    1  UNL1        0.0082
      6 C         140.2508  142.7529  169.3099 C.ar    1  UNL1        0.0347
      7 BR        140.4551  143.9484  170.1925 Br      1  UNL1       -0.0490
      8 C         139.7498  141.4657  169.8948 C.ar    1  UNL1        0.0082
      9 C         139.5454  140.2702  169.0122 C.ar    1  UNL1        0.0197
     10 C         139.8420  140.3619  167.5447 C.ar    1  UNL1        0.0844
     11 N         139.6376  139.1664  166.6621 N.ar    1  UNL1       -0.2119
     12 C         139.9342  139.2581  165.1945 C.ar    1  UNL1        0.2211
     13 O         139.7298  138.0626  164.3119 O.3     1  UNL1       -0.4563
     14 C         140.7159  136.9326  164.3395 C.3     1  UNL1        0.2542
     15 C         141.8593  139.8418  162.5536 C.ar    1  UNL1        0.0213
     16 C         143.2420  139.9676  163.1212 C.ar    1  UNL1       -0.0007
     17 C         144.3695  139.1724  162.5328 C.ar    1  UNL1        0.0030
     18 C         144.1143  138.2513  161.3767 C.ar    1  UNL1        0.0400
     19 C         142.7316  138.1255  160.8091 C.ar    1  UNL1        0.1721
     20 C         141.6040  138.9208  161.3976 C.ar    1  UNL1        0.1687
     21 O         142.4763  137.2045  159.6530 O.3     1  UNL1       -0.4684
     22 C         142.7305  137.6726  158.2508 C.3     1  UNL1        0.2526
     23 O         140.2213  138.7950  160.8299 O.3     1  UNL1       -0.4687
     24 C         139.9103  139.3674  159.4787 C.3     1  UNL1        0.2526
     25 C         139.9008  141.5241  162.2630 C.3     1  UNL1        0.1162
     26 O         138.7035  140.6582  162.5211 O.3     1  UNL1       -0.3820
     27 H         137.9388  141.0124  162.0408 H       1  UNL1        0.2107
     28 C         142.9714  143.9601  162.8856 C.ar    1  UNL1        0.2272
     29 C         141.7740  143.0942  163.1437 C.ar    1  UNL1        0.0559
     30 C         141.0982  142.3899  162.0048 C.ar    1  UNL1        0.0117
     31 C         141.6198  142.5514  160.6078 C.ar    1  UNL1        0.0559
     32 C         142.8171  143.4173  160.3496 C.ar    1  UNL1        0.2272
     33 N         143.4929  144.1216  161.4885 N.ar    1  UNL1       -0.1767
     34 C         144.3310  143.8702  165.0977 C.3     1  UNL1        0.2542
     35 O         143.6472  144.6644  164.0246 O.3     1  UNL1       -0.4561
     36 O         143.3387  143.5788  158.9524 O.3     1  UNL1       -0.4561
     37 C         142.4598  144.1634  157.8867 C.3     1  UNL1        0.2542
     38 C         139.0699  142.4111  161.3839 C.3     1  UNL1        0.0491
     39 C         137.9840  143.2553  161.9825 C.3     1  UNL1        0.0750
     40 N         138.3244  144.3065  162.9969 N.3     1  UNL1       -0.2702
     41 C         137.8778  144.1479  164.4201 C.3     1  UNL1        0.0897
     42 C         139.1116  145.5163  162.5882 C.3     1  UNL1        0.0897
@<TRIPOS>BOND
     1    34    35    1
     2    35    28    1
     3    28    29   ar
     4    29    30   ar
     5    30    25    1
     6    25    26    1
     7    25    38    1
     8    38    39    1
     9    39    40    1
    10    40    41    1
    11    40    42    1
    12    25     1    1
    13     1     2    1
    14     2     3   ar
    15     3     4   ar
    16     4     5   ar
    17     5     6   ar
    18     6     7    1
    19     6     8   ar
    20     8     9   ar
    21     9    10   ar
    22    10    11   ar
    23    11    12   ar
    24    12    13    1
    25    13    14    1
    26     1    15    1
    27    15    16   ar
    28    16    17   ar
    29    17    18   ar
    30    18    19   ar
    31    19    21    1
    32    21    22    1
    33    19    20   ar
    34    20    23    1
    35    23    24    1
    36    30    31   ar
    37    31    32   ar
    38    32    36    1
    39    36    37    1
    40    32    33   ar
    41    33    28   ar
    42    12     2   ar
    43    20    15   ar
    44    10     4   ar
    45    26    27    1
@<TRIPOS>MOLECULE
*****
 42 45 0 0 0
SMALL
GASTEIGER

@<TRIPOS>ATOM
      1 C         141.5845  141.3520  164.0623 C.3     1  UNL1        0.0807
      2 C         142.4213  141.7248  162.8745 C.ar    1  UNL1        0.0375
      3 C         142.3258  140.9251  161.6090 C.ar    1  UNL1        0.0023
      4 C         143.1625  141.2978  160.4213 C.ar    1  UNL1        0.0181
      5 C         143.0670  140.4981  159.1558 C.ar    1  UNL1        0.0082
      6 C         143.9038  140.8709  157.9680 C.ar    1  UNL1        0.0347
      7 BR        143.8083  140.0711  156.7026 Br      1  UNL1       -0.0490
      8 C         144.8361  142.0433  158.0457 C.ar    1  UNL1        0.0082
      9 C         144.9316  142.8431  159.3111 C.ar    1  UNL1        0.0197
     10 C         144.0949  142.4703  160.4989 C.ar    1  UNL1        0.0844
     11 N         144.1904  143.2701  161.7643 N.ar    1  UNL1       -0.2119
     12 C         143.3536  142.8973  162.9521 C.ar    1  UNL1        0.2211
     13 O         143.4492  143.6970  164.2175 O.3     1  UNL1       -0.4563
     14 C         144.5846  143.4624  165.1691 C.3     1  UNL1        0.2542
     15 C         142.1553  140.4737  165.1359 C.ar    1  UNL1        0.0213
     16 C         142.6575  139.1020  164.7946 C.ar    1  UNL1       -0.0007
     17 C         143.2283  138.2237  165.8682 C.ar    1  UNL1        0.0030
     18 C         143.2969  138.7170  167.2832 C.ar    1  UNL1        0.0400
     19 C         142.7948  140.0886  167.6244 C.ar    1  UNL1        0.1721
     20 C         142.2239  140.9669  166.5508 C.ar    1  UNL1        0.1687
     21 O         142.8634  140.5819  169.0393 O.3     1  UNL1       -0.4684
     22 C         142.1570  139.8325  170.1299 C.3     1  UNL1        0.2526
     23 O         141.7217  142.3386  166.8920 O.3     1  UNL1       -0.4687
     24 C         140.5191  142.4990  167.7741 C.3     1  UNL1        0.2526
     25 C         140.1769  141.8576  164.1764 C.3     1  UNL1        0.1162
     26 O         140.6939  143.2505  164.3824 O.3     1  UNL1       -0.3820
     27 H         139.9472  143.8590  164.4964 H       1  UNL1        0.2107
     28 C         138.6245  138.2840  164.9308 C.ar    1  UNL1        0.2272
     29 C         139.1415  139.6769  165.1369 C.ar    1  UNL1        0.0559
     30 C         139.6599  140.4646  163.9704 C.ar    1  UNL1        0.0117
     31 C         139.6613  139.8595  162.5979 C.ar    1  UNL1        0.0559
     32 C         139.1443  138.4665  162.3919 C.ar    1  UNL1        0.2272
     33 N         138.6259  137.6788  163.5584 N.ar    1  UNL1       -0.1767
     34 C         137.3868  138.1942  167.2135 C.3     1  UNL1        0.2542
     35 O         138.1060  137.4962  166.0974 O.3     1  UNL1       -0.4561
     36 O         139.1457  137.8613  161.0194 O.3     1  UNL1       -0.4561
     37 C         139.4859  138.7063  159.8276 C.3     1  UNL1        0.2542
     38 C         138.7693  142.3632  164.2906 C.3     1  UNL1        0.0491
     39 C         138.1007  142.9945  163.1054 C.3     1  UNL1        0.0750
     40 N         138.9011  143.8271  162.1482 N.3     1  UNL1       -0.2702
     41 C         139.1266  145.2834  162.4282 C.3     1  UNL1        0.0897
     42 C         139.4760  143.2034  160.9111 C.3     1  UNL1        0.0897
@<TRIPOS>BOND
     1    34    35    1
     2    35    28    1
     3    28    29   ar
     4    29    30   ar
     5    30    25    1
     6    25    26    1
     7    25    38    1
     8    38    39    1
     9    39    40    1
    10    40    41    1
    11    40    42    1
    12    25     1    1
    13     1     2    1
    14     2     3   ar
    15     3     4   ar
    16     4     5   ar
    17     5     6   ar
    18     6     7    1
    19     6     8   ar
    20     8     9   ar
    21     9    10   ar
    22    10    11   ar
    23    11    12   ar
    24    12    13    1
    25    13    14    1
    26     1    15    1
    27    15    16   ar
    28    16    17   ar
    29    17    18   ar
    30    18    19   ar
    31    19    21    1
    32    21    22    1
    33    19    20   ar
    34    20    23    1
    35    23    24    1
    36    30    31   ar
    37    31    32   ar
    38    32    36    1
    39    36    37    1
    40    32    33   ar
    41    33    28   ar
    42    12     2   ar
    43    20    15   ar
    44    10     4   ar
    45    26    27    1
@<TRIPOS>MOLECULE
*****
 42 45 0 0 0
SMALL
GASTEIGER

@<TRIPOS>ATOM
      1 C         141.4871  141.4582  164.1175 C.3     1  UNL1        0.0807
      2 C         142.3545  141.7991  162.9420 C.ar    1  UNL1        0.0375
      3 C         142.2529  140.9983  161.6778 C.ar    1  UNL1        0.0023
      4 C         143.1202  141.3391  160.5023 C.ar    1  UNL1        0.0181
      5 C         143.0186  140.5383  159.2381 C.ar    1  UNL1        0.0082
      6 C         143.8859  140.8792  158.0626 C.ar    1  UNL1        0.0347
      7 BR        143.7843  140.0784  156.7983 Br      1  UNL1       -0.0490
      8 C         144.8547  142.0209  158.1515 C.ar    1  UNL1        0.0082
      9 C         144.9563  142.8217  159.4158 C.ar    1  UNL1        0.0197
     10 C         144.0891  142.4808  160.5912 C.ar    1  UNL1        0.0844
     11 N         144.1906  143.2816  161.8555 N.ar    1  UNL1       -0.2119
     12 C         143.3233  142.9407  163.0309 C.ar    1  UNL1        0.2211
     13 O         143.4249  143.7415  164.2952 O.3     1  UNL1       -0.4563
     14 C         144.5782  143.5250  165.2295 C.3     1  UNL1        0.2542
     15 C         142.0417  140.6416  165.2470 C.ar    1  UNL1        0.0213
     16 C         142.5751  139.2643  164.9854 C.ar    1  UNL1       -0.0007
     17 C         143.1297  138.4478  166.1148 C.ar    1  UNL1        0.0030
     18 C         143.1507  139.0086  167.5060 C.ar    1  UNL1        0.0400
     19 C         142.6173  140.3859  167.7675 C.ar    1  UNL1        0.1721
     20 C         142.0627  141.2024  166.6380 C.ar    1  UNL1        0.1687
     21 O         142.6383  140.9467  169.1586 O.3     1  UNL1       -0.4684
     22 C         143.5907  142.0518  169.5073 C.3     1  UNL1        0.2526
     23 O         141.5293  142.5797  166.8996 O.3     1  UNL1       -0.4687
     24 C         140.3213  142.7634  167.7698 C.3     1  UNL1        0.2526
     25 C         140.0653  141.9338  164.1634 C.3     1  UNL1        0.1162
     26 O         140.5430  143.3442  164.3438 O.3     1  UNL1       -0.3820
     27 H         139.7791  143.9383  164.4107 H       1  UNL1        0.2107
     28 C         139.1516  138.4749  162.4457 C.ar    1  UNL1        0.2272
     29 C         139.6293  139.8853  162.6261 C.ar    1  UNL1        0.0559
     30 C         139.5876  140.5234  163.9829 C.ar    1  UNL1        0.0117
     31 C         139.0683  139.7511  165.1593 C.ar    1  UNL1        0.0559
     32 C         138.5907  138.3407  164.9788 C.ar    1  UNL1        0.2272
     33 N         138.6323  137.7026  163.6220 N.ar    1  UNL1       -0.1767
     34 C         139.5272  138.6622  159.8817 C.3     1  UNL1        0.2542
     35 O         139.1933  137.8367  161.0887 O.3     1  UNL1       -0.4561
     36 O         138.0713  137.5684  166.1553 O.3     1  UNL1       -0.4561
     37 C         137.3937  138.2871  167.2842 C.3     1  UNL1        0.2542
     38 C         138.6435  142.4095  164.2093 C.3     1  UNL1        0.0491
     39 C         137.9822  142.9184  162.9627 C.3     1  UNL1        0.0750
     40 N         138.7515  143.7762  162.0023 N.3     1  UNL1       -0.2702
     41 C         138.9406  145.2367  162.2870 C.3     1  UNL1        0.0897
     42 C         139.3318  143.1734  160.7573 C.3     1  UNL1        0.0897
@<TRIPOS>BOND
     1    34    35    1
     2    35    28    1
     3    28    29   ar
     4    29    30   ar
     5    30    25    1
     6    25    26    1
     7    25    38    1
     8    38    39    1
     9    39    40    1
    10    40    41    1
    11    40    42    1
    12    25     1    1
    13     1     2    1
    14     2     3   ar
    15     3     4   ar
    16     4     5   ar
    17     5     6   ar
    18     6     7    1
    19     6     8   ar
    20     8     9   ar
    21     9    10   ar
    22    10    11   ar
    23    11    12   ar
    24    12    13    1
    25    13    14    1
    26     1    15    1
    27    15    16   ar
    28    16    17   ar
    29    17    18   ar
    30    18    19   ar
    31    19    21    1
    32    21    22    1
    33    19    20   ar
    34    20    23    1
    35    23    24    1
    36    30    31   ar
    37    31    32   ar
    38    32    36    1
    39    36    37    1
    40    32    33   ar
    41    33    28   ar
    42    12     2   ar
    43    20    15   ar
    44    10     4   ar
    45    26    27    1
@<TRIPOS>MOLECULE
*****
 42 45 0 0 0
SMALL
GASTEIGER

@<TRIPOS>ATOM
      1 C         141.3004  140.9556  162.8152 C.3     1  UNL1        0.0807
      2 C         141.3445  140.7045  164.2934 C.ar    1  UNL1        0.0375
      3 C         140.9805  141.7999  165.2513 C.ar    1  UNL1        0.0023
      4 C         141.0245  141.5489  166.7295 C.ar    1  UNL1        0.0181
      5 C         140.6606  142.6443  167.6874 C.ar    1  UNL1        0.0082
      6 C         140.7046  142.3932  169.1656 C.ar    1  UNL1        0.0347
      7 BR        140.3407  143.4886  170.1236 Br      1  UNL1       -0.0490
      8 C         141.1126  141.0468  169.6859 C.ar    1  UNL1        0.0082
      9 C         141.4765  139.9514  168.7279 C.ar    1  UNL1        0.0197
     10 C         141.4325  140.2024  167.2498 C.ar    1  UNL1        0.0844
     11 N         141.7965  139.1070  166.2919 N.ar    1  UNL1       -0.2119
     12 C         141.7524  139.3581  164.8136 C.ar    1  UNL1        0.2211
     13 O         142.1164  138.2627  163.8557 O.3     1  UNL1       -0.4563
     14 C         141.1538  137.1418  163.5973 C.3     1  UNL1        0.2542
     15 C         140.1935  140.3721  161.9880 C.ar    1  UNL1        0.0213
     16 C         138.7655  140.5584  162.4074 C.ar    1  UNL1       -0.0007
     17 C         137.6586  139.9750  161.5802 C.ar    1  UNL1        0.0030
     18 C         137.9797  139.2051  160.3335 C.ar    1  UNL1        0.0400
     19 C         139.4078  139.0187  159.9141 C.ar    1  UNL1        0.1721
     20 C         140.5147  139.6022  160.7413 C.ar    1  UNL1        0.1687
     21 O         139.7289  138.2488  158.6674 O.3     1  UNL1       -0.4684
     22 C         139.7003  138.9351  157.3340 C.3     1  UNL1        0.2526
     23 O         141.9427  139.4159  160.3219 O.3     1  UNL1       -0.4687
     24 C         142.5616  138.0498  160.3538 C.3     1  UNL1        0.2526
     25 C         142.3633  141.7901  162.1642 C.3     1  UNL1        0.1162
     26 O         143.3861  140.7428  162.4915 O.3     1  UNL1       -0.3820
     27 H         144.2546  141.0259  162.1651 H       1  UNL1        0.2107
     28 C         139.9840  144.1858  160.0786 C.ar    1  UNL1        0.2272
     29 C         141.0067  143.1385  160.4059 C.ar    1  UNL1        0.0559
     30 C         141.3405  142.8374  161.8369 C.ar    1  UNL1        0.0117
     31 C         140.6516  143.5837  162.9407 C.ar    1  UNL1        0.0559
     32 C         139.6288  144.6310  162.6134 C.ar    1  UNL1        0.2272
     33 N         139.2950  144.9321  161.1824 N.ar    1  UNL1       -0.1767
     34 C         140.3932  145.5643  157.9147 C.3     1  UNL1        0.2542
     35 O         139.6502  144.4868  158.6475 O.3     1  UNL1       -0.4561
     36 O         138.9398  145.3773  163.7173 O.3     1  UNL1       -0.4561
     37 C         138.7455  144.7269  165.0549 C.3     1  UNL1        0.2542
     38 C         143.4262  142.6247  161.5132 C.3     1  UNL1        0.0491
     39 C         144.5465  143.1880  162.3365 C.3     1  UNL1        0.0750
     40 N         144.2693  143.7367  163.7047 N.3     1  UNL1       -0.2702
     41 C         143.6972  145.1147  163.8585 C.3     1  UNL1        0.0897
     42 C         144.5643  142.9072  164.9193 C.3     1  UNL1        0.0897
@<TRIPOS>BOND
     1    34    35    1
     2    35    28    1
     3    28    29   ar
     4    29    30   ar
     5    30    25    1
     6    25    26    1
     7    25    38    1
     8    38    39    1
     9    39    40    1
    10    40    41    1
    11    40    42    1
    12    25     1    1
    13     1     2    1
    14     2     3   ar
    15     3     4   ar
    16     4     5   ar
    17     5     6   ar
    18     6     7    1
    19     6     8   ar
    20     8     9   ar
    21     9    10   ar
    22    10    11   ar
    23    11    12   ar
    24    12    13    1
    25    13    14    1
    26     1    15    1
    27    15    16   ar
    28    16    17   ar
    29    17    18   ar
    30    18    19   ar
    31    19    21    1
    32    21    22    1
    33    19    20   ar
    34    20    23    1
    35    23    24    1
    36    30    31   ar
    37    31    32   ar
    38    32    36    1
    39    36    37    1
    40    32    33   ar
    41    33    28   ar
    42    12     2   ar
    43    20    15   ar
    44    10     4   ar
    45    26    27    1
@<TRIPOS>MOLECULE
*****
 42 45 0 0 0
SMALL
GASTEIGER

@<TRIPOS>ATOM
      1 C         141.8144  142.1030  163.4130 C.3     1  UNL1        0.0807
      2 C         142.2005  142.1712  164.8609 C.ar    1  UNL1        0.0375
      3 C         141.3736  141.4617  165.8918 C.ar    1  UNL1        0.0023
      4 C         141.7596  141.5298  167.3396 C.ar    1  UNL1        0.0181
      5 C         140.9327  140.8202  168.3705 C.ar    1  UNL1        0.0082
      6 C         141.3188  140.8884  169.8184 C.ar    1  UNL1        0.0347
      7 BR        140.4919  140.1788  170.8493 Br      1  UNL1       -0.0490
      8 C         142.5318  141.6661  170.2354 C.ar    1  UNL1        0.0082
      9 C         143.3587  142.3756  169.2045 C.ar    1  UNL1        0.0197
     10 C         142.9726  142.3075  167.7567 C.ar    1  UNL1        0.0844
     11 N         143.7996  143.0170  166.7258 N.ar    1  UNL1       -0.2119
     12 C         143.4135  142.9489  165.2779 C.ar    1  UNL1        0.2211
     13 O         144.2404  143.6584  164.2470 O.3     1  UNL1       -0.4563
     14 C         143.9862  145.1062  163.9483 C.3     1  UNL1        0.2542
     15 C         141.1638  143.2830  162.7539 C.ar    1  UNL1        0.0213
     16 C         139.9439  143.9055  163.3658 C.ar    1  UNL1       -0.0007
     17 C         139.2933  145.0855  162.7068 C.ar    1  UNL1        0.0030
     18 C         139.8625  145.6429  161.4358 C.ar    1  UNL1        0.0400
     19 C         141.0824  145.0203  160.8239 C.ar    1  UNL1        0.1721
     20 C         141.7330  143.8403  161.4830 C.ar    1  UNL1        0.1687
     21 O         141.6516  145.5777  159.5530 O.3     1  UNL1       -0.4684
     22 C         140.8468  145.5334  158.2880 C.3     1  UNL1        0.2526
     23 O         142.9529  143.2178  160.8712 O.3     1  UNL1       -0.4687
     24 C         142.8589  142.5370  159.5378 C.3     1  UNL1        0.2526
     25 C         142.0789  140.8549  162.6242 C.3     1  UNL1        0.1162
     26 O         143.5541  141.1125  162.7114 O.3     1  UNL1       -0.3820
     27 H         144.0333  140.4070  162.2493 H       1  UNL1        0.2107
     28 C         138.3502  140.0109  163.6891 C.ar    1  UNL1        0.2272
     29 C         139.8253  140.2685  163.7763 C.ar    1  UNL1        0.0559
     30 C         140.6038  140.5973  162.5371 C.ar    1  UNL1        0.0117
     31 C         139.9071  140.6686  161.2106 C.ar    1  UNL1        0.0559
     32 C         138.4320  140.4110  161.1234 C.ar    1  UNL1        0.2272
     33 N         137.6535  140.0822  162.3627 N.ar    1  UNL1       -0.1767
     34 C         138.2686  139.0872  166.1161 C.3     1  UNL1        0.2542
     35 O         137.5717  139.6821  164.9285 O.3     1  UNL1       -0.4561
     36 O         137.7353  140.4823  159.7969 O.3     1  UNL1       -0.4561
     37 C         138.3362  141.2775  158.6759 C.3     1  UNL1        0.2542
     38 C         142.3435  139.6068  161.8355 C.3     1  UNL1        0.0491
     39 C         142.9693  138.4172  162.5014 C.3     1  UNL1        0.0750
     40 N         142.6641  138.1156  163.9387 N.3     1  UNL1       -0.2702
     41 C         141.4727  137.2756  164.2922 C.3     1  UNL1        0.0897
     42 C         143.5504  138.6540  165.0226 C.3     1  UNL1        0.0897
@<TRIPOS>BOND
     1    34    35    1
     2    35    28    1
     3    28    29   ar
     4    29    30   ar
     5    30    25    1
     6    25    26    1
     7    25    38    1
     8    38    39    1
     9    39    40    1
    10    40    41    1
    11    40    42    1
    12    25     1    1
    13     1     2    1
    14     2     3   ar
    15     3     4   ar
    16     4     5   ar
    17     5     6   ar
    18     6     7    1
    19     6     8   ar
    20     8     9   ar
    21     9    10   ar
    22    10    11   ar
    23    11    12   ar
    24    12    13    1
    25    13    14    1
    26     1    15    1
    27    15    16   ar
    28    16    17   ar
    29    17    18   ar
    30    18    19   ar
    31    19    21    1
    32    21    22    1
    33    19    20   ar
    34    20    23    1
    35    23    24    1
    36    30    31   ar
    37    31    32   ar
    38    32    36    1
    39    36    37    1
    40    32    33   ar
    41    33    28   ar
    42    12     2   ar
    43    20    15   ar
    44    10     4   ar
    45    26    27    1
@<TRIPOS>MOLECULE
*****
 42 45 0 0 0
SMALL
GASTEIGER

@<TRIPOS>ATOM
      1 C         141.3188  140.9341  162.6279 C.3     1  UNL1        0.0807
      2 C         141.3454  140.6886  164.1075 C.ar    1  UNL1        0.0375
      3 C         141.0131  141.8001  165.0582 C.ar    1  UNL1        0.0023
      4 C         141.0396  141.5547  166.5378 C.ar    1  UNL1        0.0181
      5 C         140.7073  142.6662  167.4885 C.ar    1  UNL1        0.0082
      6 C         140.7339  142.4207  168.9681 C.ar    1  UNL1        0.0347
      7 BR        140.4016  143.5323  169.9189 Br      1  UNL1       -0.0490
      8 C         141.0928  141.0637  169.4969 C.ar    1  UNL1        0.0082
      9 C         141.4252  139.9521  168.5461 C.ar    1  UNL1        0.0197
     10 C         141.3986  140.1976  167.0666 C.ar    1  UNL1        0.0844
     11 N         141.7309  139.0860  166.1158 N.ar    1  UNL1       -0.2119
     12 C         141.7043  139.3315  164.6362 C.ar    1  UNL1        0.2211
     13 O         142.0367  138.2200  163.6854 O.3     1  UNL1       -0.4563
     14 C         141.0477  137.1183  163.4445 C.3     1  UNL1        0.2542
     15 C         140.1721  140.4278  161.8041 C.ar    1  UNL1        0.0213
     16 C         138.7613  140.7003  162.2349 C.ar    1  UNL1       -0.0007
     17 C         137.6146  140.1940  161.4111 C.ar    1  UNL1        0.0030
     18 C         137.8785  139.4153  160.1565 C.ar    1  UNL1        0.0400
     19 C         139.2893  139.1428  159.7258 C.ar    1  UNL1        0.1721
     20 C         140.4360  139.6491  160.5496 C.ar    1  UNL1        0.1687
     21 O         139.5533  138.3641  158.4713 O.3     1  UNL1       -0.4684
     22 C         139.7450  139.0829  157.1688 C.3     1  UNL1        0.2526
     23 O         141.8468  139.3767  160.1189 O.3     1  UNL1       -0.4687
     24 C         142.3949  137.9819  160.1846 C.3     1  UNL1        0.2526
     25 C         142.4390  141.6858  161.9721 C.3     1  UNL1        0.1162
     26 O         143.3802  140.5626  162.2923 O.3     1  UNL1       -0.3820
     27 H         144.2661  140.7788  161.9615 H       1  UNL1        0.2107
     28 C         139.9206  144.7170  162.4408 C.ar    1  UNL1        0.2272
     29 C         140.8618  143.5938  162.7609 C.ar    1  UNL1        0.0559
     30 C         141.4978  142.8091  161.6520 C.ar    1  UNL1        0.0117
     31 C         141.1926  143.1476  160.2230 C.ar    1  UNL1        0.0559
     32 C         140.2514  144.2708  159.9028 C.ar    1  UNL1        0.2272
     33 N         139.6154  145.0555  161.0117 N.ar    1  UNL1       -0.1767
     34 C         138.8203  144.8023  164.7928 C.3     1  UNL1        0.2542
     35 O         139.2846  145.5017  163.5498 O.3     1  UNL1       -0.4561
     36 O         139.9461  144.6093  158.4737 O.3     1  UNL1       -0.4561
     37 C         140.6503  145.7539  157.8072 C.3     1  UNL1        0.2542
     38 C         143.5592  142.4376  161.3164 C.3     1  UNL1        0.0491
     39 C         144.4900  143.2712  162.1465 C.3     1  UNL1        0.0750
     40 N         144.8701  142.8223  163.5263 N.3     1  UNL1       -0.2702
     41 C         144.2380  143.4655  164.7250 C.3     1  UNL1        0.0897
     42 C         145.8823  141.7302  163.7075 C.3     1  UNL1        0.0897
@<TRIPOS>BOND
     1    34    35    1
     2    35    28    1
     3    28    29   ar
     4    29    30   ar
     5    30    25    1
     6    25    26    1
     7    25    38    1
     8    38    39    1
     9    39    40    1
    10    40    41    1
    11    40    42    1
    12    25     1    1
    13     1     2    1
    14     2     3   ar
    15     3     4   ar
    16     4     5   ar
    17     5     6   ar
    18     6     7    1
    19     6     8   ar
    20     8     9   ar
    21     9    10   ar
    22    10    11   ar
    23    11    12   ar
    24    12    13    1
    25    13    14    1
    26     1    15    1
    27    15    16   ar
    28    16    17   ar
    29    17    18   ar
    30    18    19   ar
    31    19    21    1
    32    21    22    1
    33    19    20   ar
    34    20    23    1
    35    23    24    1
    36    30    31   ar
    37    31    32   ar
    38    32    36    1
    39    36    37    1
    40    32    33   ar
    41    33    28   ar
    42    12     2   ar
    43    20    15   ar
    44    10     4   ar
    45    26    27    1
@<TRIPOS>MOLECULE
*****
 42 45 0 0 0
SMALL
GASTEIGER

@<TRIPOS>ATOM
      1 C         141.8594  142.1263  163.3973 C.3     1  UNL1        0.0807
      2 C         142.2370  142.1884  164.8478 C.ar    1  UNL1        0.0375
      3 C         141.4059  141.4720  165.8705 C.ar    1  UNL1        0.0023
      4 C         141.7834  141.5341  167.3208 C.ar    1  UNL1        0.0181
      5 C         140.9523  140.8176  168.3435 C.ar    1  UNL1        0.0082
      6 C         141.3299  140.8797  169.7939 C.ar    1  UNL1        0.0347
      7 BR        140.4988  140.1632  170.8166 Br      1  UNL1       -0.0490
      8 C         142.5386  141.6582  170.2216 C.ar    1  UNL1        0.0082
      9 C         143.3697  142.3747  169.1989 C.ar    1  UNL1        0.0197
     10 C         142.9922  142.3126  167.7485 C.ar    1  UNL1        0.0844
     11 N         143.8233  143.0291  166.7258 N.ar    1  UNL1       -0.2119
     12 C         143.4457  142.9670  165.2754 C.ar    1  UNL1        0.2211
     13 O         144.2768  143.6834  164.2527 O.3     1  UNL1       -0.4563
     14 C         144.0093  145.1273  163.9468 C.3     1  UNL1        0.2542
     15 C         141.2072  143.3069  162.7409 C.ar    1  UNL1        0.0213
     16 C         140.0031  143.9438  163.3690 C.ar    1  UNL1       -0.0007
     17 C         139.3509  145.1243  162.7125 C.ar    1  UNL1        0.0030
     18 C         139.9028  145.6680  161.4280 C.ar    1  UNL1        0.0400
     19 C         141.1069  145.0311  160.8000 C.ar    1  UNL1        0.1721
     20 C         141.7591  143.8505  161.4565 C.ar    1  UNL1        0.1687
     21 O         141.6589  145.5747  159.5156 O.3     1  UNL1       -0.4684
     22 C         140.8348  145.5220  158.2634 C.3     1  UNL1        0.2526
     23 O         142.9632  143.2135  160.8285 O.3     1  UNL1       -0.4687
     24 C         142.8450  142.5404  159.4932 C.3     1  UNL1        0.2526
     25 C         142.1340  140.8836  162.6034 C.3     1  UNL1        0.1162
     26 O         143.6044  141.1756  162.6551 O.3     1  UNL1       -0.3820
     27 H         144.0888  140.4808  162.1822 H       1  UNL1        0.2107
     28 C         138.4759  140.2920  161.1828 C.ar    1  UNL1        0.2272
     29 C         139.9463  140.5839  161.2344 C.ar    1  UNL1        0.0559
     30 C         140.6636  140.5917  162.5518 C.ar    1  UNL1        0.0117
     31 C         139.9104  140.3076  163.8175 C.ar    1  UNL1        0.0559
     32 C         138.4400  140.0156  163.7658 C.ar    1  UNL1        0.2272
     33 N         137.7227  140.0079  162.4485 N.ar    1  UNL1       -0.1767
     34 C         138.4509  140.7826  158.6315 C.3     1  UNL1        0.2542
     35 O         137.7586  140.2842  159.8654 O.3     1  UNL1       -0.4561
     36 O         137.6869  139.7315  165.0316 O.3     1  UNL1       -0.4561
     37 C         138.3340  138.9369  166.1270 C.3     1  UNL1        0.2542
     38 C         142.4086  139.6409  161.8095 C.3     1  UNL1        0.0491
     39 C         142.9968  138.4360  162.4820 C.3     1  UNL1        0.0750
     40 N         142.8490  138.2573  163.9640 N.3     1  UNL1       -0.2702
     41 C         141.6836  137.4898  164.5142 C.3     1  UNL1        0.0897
     42 C         143.8666  138.8460  164.8956 C.3     1  UNL1        0.0897
@<TRIPOS>BOND
     1    34    35    1
     2    35    28    1
     3    28    29   ar
     4    29    30   ar
     5    30    25    1
     6    25    26    1
     7    25    38    1
     8    38    39    1
     9    39    40    1
    10    40    41    1
    11    40    42    1
    12    25     1    1
    13     1     2    1
    14     2     3   ar
    15     3     4   ar
    16     4     5   ar
    17     5     6   ar
    18     6     7    1
    19     6     8   ar
    20     8     9   ar
    21     9    10   ar
    22    10    11   ar
    23    11    12   ar
    24    12    13    1
    25    13    14    1
    26     1    15    1
    27    15    16   ar
    28    16    17   ar
    29    17    18   ar
    30    18    19   ar
    31    19    21    1
    32    21    22    1
    33    19    20   ar
    34    20    23    1
    35    23    24    1
    36    30    31   ar
    37    31    32   ar
    38    32    36    1
    39    36    37    1
    40    32    33   ar
    41    33    28   ar
    42    12     2   ar
    43    20    15   ar
    44    10     4   ar
    45    26    27    1
@<TRIPOS>MOLECULE
*****
 42 45 0 0 0
SMALL
GASTEIGER

@<TRIPOS>ATOM
      1 C         140.3377  141.2521  162.4634 C.3     1  UNL1        0.0807
      2 C         140.3277  141.7652  163.8730 C.ar    1  UNL1        0.0375
      3 C         141.2329  141.1527  164.9004 C.ar    1  UNL1        0.0023
      4 C         141.2229  141.6657  166.3099 C.ar    1  UNL1        0.0181
      5 C         142.1281  141.0533  167.3373 C.ar    1  UNL1        0.0082
      6 C         142.1181  141.5663  168.7469 C.ar    1  UNL1        0.0347
      7 BR        143.0232  140.9539  169.7743 Br      1  UNL1       -0.0490
      8 C         141.2030  142.6918  169.1289 C.ar    1  UNL1        0.0082
      9 C         140.2979  143.3042  168.1015 C.ar    1  UNL1        0.0197
     10 C         140.3078  142.7912  166.6920 C.ar    1  UNL1        0.0844
     11 N         139.4027  143.4037  165.6645 N.ar    1  UNL1       -0.2119
     12 C         139.4127  142.8906  164.2550 C.ar    1  UNL1        0.2211
     13 O         138.5075  143.5030  163.2275 O.3     1  UNL1       -0.4563
     14 C         138.7174  144.9238  162.7946 C.3     1  UNL1        0.2542
     15 C         140.7421  142.1580  161.3384 C.ar    1  UNL1        0.0213
     16 C         142.0932  142.8095  161.3487 C.ar    1  UNL1       -0.0007
     17 C         142.4977  143.7154  160.2237 C.ar    1  UNL1        0.0030
     18 C         141.5510  143.9698  159.0882 C.ar    1  UNL1        0.0400
     19 C         140.1999  143.3184  159.0779 C.ar    1  UNL1        0.1721
     20 C         139.7955  142.4124  160.2030 C.ar    1  UNL1        0.1687
     21 O         139.2532  143.5728  157.9426 O.3     1  UNL1       -0.4684
     22 C         139.7562  144.1873  156.6701 C.3     1  UNL1        0.2526
     23 O         138.4444  141.7609  160.1927 O.3     1  UNL1       -0.4687
     24 C         138.1451  140.6704  159.2072 C.3     1  UNL1        0.2526
     25 C         139.9432  139.8331  162.1790 C.3     1  UNL1        0.1162
     26 O         138.5399  140.1361  162.6137 O.3     1  UNL1       -0.3820
     27 H         137.9969  139.3363  162.5339 H       1  UNL1        0.2107
     28 C         143.0377  138.9099  159.8721 C.ar    1  UNL1        0.2272
     29 C         141.6344  139.2129  160.3068 C.ar    1  UNL1        0.0559
     30 C         141.3465  139.5301  161.7443 C.ar    1  UNL1        0.0117
     31 C         142.4619  139.5444  162.7471 C.ar    1  UNL1        0.0559
     32 C         143.8652  139.2414  162.3124 C.ar    1  UNL1        0.2272
     33 N         144.1531  138.9241  160.8749 N.ar    1  UNL1       -0.1767
     34 C         142.6220  137.4506  157.7631 C.3     1  UNL1        0.2542
     35 O         143.3256  138.5926  158.4346 O.3     1  UNL1       -0.4561
     36 O         144.9806  139.2557  163.3153 O.3     1  UNL1       -0.4561
     37 C         145.2005  140.4649  164.1753 C.3     1  UNL1        0.2542
     38 C         139.5487  138.4142  161.8946 C.3     1  UNL1        0.0491
     39 C         138.9327  137.5760  162.9753 C.3     1  UNL1        0.0750
     40 N         139.4885  137.6207  164.3678 N.3     1  UNL1       -0.2702
     41 C         138.6620  138.1800  165.4877 C.3     1  UNL1        0.0897
     42 C         140.8710  137.1062  164.6404 C.3     1  UNL1        0.0897
@<TRIPOS>BOND
     1    34    35    1
     2    35    28    1
     3    28    29   ar
     4    29    30   ar
     5    30    25    1
     6    25    26    1
     7    25    38    1
     8    38    39    1
     9    39    40    1
    10    40    41    1
    11    40    42    1
    12    25     1    1
    13     1     2    1
    14     2     3   ar
    15     3     4   ar
    16     4     5   ar
    17     5     6   ar
    18     6     7    1
    19     6     8   ar
    20     8     9   ar
    21     9    10   ar
    22    10    11   ar
    23    11    12   ar
    24    12    13    1
    25    13    14    1
    26     1    15    1
    27    15    16   ar
    28    16    17   ar
    29    17    18   ar
    30    18    19   ar
    31    19    21    1
    32    21    22    1
    33    19    20   ar
    34    20    23    1
    35    23    24    1
    36    30    31   ar
    37    31    32   ar
    38    32    36    1
    39    36    37    1
    40    32    33   ar
    41    33    28   ar
    42    12     2   ar
    43    20    15   ar
    44    10     4   ar
    45    26    27    1
