@<TRIPOS>MOLECULE
*****
 35 38 0 0 0
SMALL
GASTEIGER

@<TRIPOS>ATOM
      1 C         138.5519  139.0392  164.8888 C.ar    1  UNL1        0.0533
      2 C         138.1324  140.1950  164.0297 C.ar    1  UNL1        0.0042
      3 C         138.3021  140.1233  162.5411 C.ar    1  UNL1       -0.0041
      4 C         138.8913  138.8958  161.9116 C.ar    1  UNL1       -0.0208
      5 C         139.3108  137.7401  162.7707 C.ar    1  UNL1       -0.0041
      6 C         139.1411  137.8118  164.2593 C.ar    1  UNL1        0.0042
      7 N         139.3455  139.9096  167.2046 N.am    1  UNL1       -0.2956
      8 C         138.3822  139.1108  166.3775 C.2     1  UNL1        0.2461
      9 O         137.2493  138.3837  167.0391 O.2     1  UNL1       -0.2701
     10 H         140.0890  140.3869  166.7704 H       1  UNL1        0.1501
     11 C         139.1758  139.9813  168.6933 C.3     1  UNL1        0.1366
     12 N         143.7622  139.7231  171.2968 N.pl3   1  UNL1       -0.3375
     13 C         142.4515  140.2188  170.7616 C.ar    1  UNL1        0.1564
     14 N         141.5335  139.4680  169.8432 N.ar    1  UNL1       -0.2271
     15 C         140.3433  140.3375  169.5649 C.ar    1  UNL1        0.0872
     16 C         140.5258  141.6257  170.3114 C.ar    1  UNL1        0.0545
     17 S         141.8287  141.5524  171.0510 S.2     1  UNL1       -0.0517
     18 H         144.0887  138.8282  171.0481 H       1  UNL1        0.1442
     19 H         144.2960  140.2927  171.8966 H       1  UNL1        0.1442
     20 C         139.0610  138.8242  160.4229 C.3     1  UNL1        0.0420
     21 C         140.4092  138.5300  159.8350 C.3     1  UNL1        0.0585
     22 C         141.7329  138.7926  160.4899 C.3     1  UNL1        0.0175
     23 C         142.8123  138.3465  159.5487 C.3     1  UNL1        0.0199
     24 C         142.1557  137.8082  158.3120 C.3     1  UNL1        0.0855
     25 N         140.6705  137.9216  158.4890 N.3     1  UNL1       -0.2971
     26 H         140.2443  136.9963  158.4388 H       1  UNL1        0.1233
     27 C         142.8605  137.2538  157.1096 C.3     1  UNL1        0.1470
     28 O         143.8094  138.1171  156.3321 O.3     1  UNL1       -0.3787
     29 H         144.1761  137.6090  155.5917 H       1  UNL1        0.2108
     30 C         142.6166  135.8362  156.6846 C.ar    1  UNL1        0.0055
     31 C         143.3430  134.7138  157.3647 C.ar    1  UNL1       -0.0019
     32 C         143.0991  133.2960  156.9397 C.ar    1  UNL1       -0.0002
     33 C         142.1287  133.0008  155.8347 C.ar    1  UNL1       -0.0000
     34 C         141.4023  134.1232  155.1546 C.ar    1  UNL1       -0.0002
     35 C         141.6462  135.5409  155.5795 C.ar    1  UNL1       -0.0019
@<TRIPOS>BOND
     1    12    13    1
     2    13    14   ar
     3    14    15   ar
     4    15    11    1
     5    11     7    1
     6     7     8   am
     7     8     9    2
     8     8     1    1
     9     1     2   ar
    10     2     3   ar
    11     3     4   ar
    12     4    20    1
    13    21    20    1
    14    21    22    1
    15    22    23    1
    16    24    23    1
    17    24    27    1
    18    27    28    1
    19    27    30    1
    20    30    31   ar
    21    31    32   ar
    22    32    33   ar
    23    33    34   ar
    24    34    35   ar
    25    24    25    1
    26     4     5   ar
    27     5     6   ar
    28    15    16   ar
    29    16    17   ar
    30    17    13   ar
    31     6     1   ar
    32    25    21    1
    33    35    30   ar
    34    12    18    1
    35    12    19    1
    36     7    10    1
    37    28    29    1
    38    25    26    1
@<TRIPOS>MOLECULE
*****
 35 38 0 0 0
SMALL
GASTEIGER

@<TRIPOS>ATOM
      1 C         140.2119  145.1939  162.3280 C.ar    1  UNL1        0.0533
      2 C         138.8732  144.8315  162.8994 C.ar    1  UNL1        0.0042
      3 C         138.7805  144.2344  164.2722 C.ar    1  UNL1       -0.0041
      4 C         140.0265  143.9997  165.0737 C.ar    1  UNL1       -0.0208
      5 C         141.3652  144.3620  164.5024 C.ar    1  UNL1       -0.0041
      6 C         141.4579  144.9592  163.1295 C.ar    1  UNL1        0.0042
      7 N         141.3723  145.3305  160.0075 N.am    1  UNL1       -0.2956
      8 C         140.3046  145.7911  160.9551 C.2     1  UNL1        0.2461
      9 O         139.3297  146.8487  160.5298 O.2     1  UNL1       -0.2701
     10 H         142.0122  144.6364  160.2866 H       1  UNL1        0.1501
     11 C         141.4651  145.9277  158.6345 C.3     1  UNL1        0.1366
     12 N         137.8464  146.2007  154.7990 N.pl3   1  UNL1       -0.3375
     13 C         138.8098  145.6640  155.8158 C.ar    1  UNL1        0.1564
     14 N         139.6686  146.4818  156.7344 N.ar    1  UNL1       -0.2271
     15 C         140.4731  145.5385  157.5788 C.ar    1  UNL1        0.0872
     16 C         140.1115  144.1379  157.1822 C.ar    1  UNL1        0.0545
     17 S         139.0835  144.2154  156.0926 S.2     1  UNL1       -0.0517
     18 H         137.7358  147.1730  154.6908 H       1  UNL1        0.1442
     19 H         137.3247  145.5807  154.2399 H       1  UNL1        0.1442
     20 C         139.9337  143.4025  166.4467 C.3     1  UNL1        0.0420
     21 C         140.8582  142.2904  166.8449 C.3     1  UNL1        0.0585
     22 C         141.5414  142.1445  168.1722 C.3     1  UNL1        0.0175
     23 C         142.3673  140.8930  168.1334 C.3     1  UNL1        0.0199
     24 C         142.1945  140.2653  166.7819 C.3     1  UNL1        0.0855
     25 N         141.2619  141.1291  165.9856 N.3     1  UNL1       -0.2971
     26 H         140.4364  140.5927  165.7186 H       1  UNL1        0.1233
     27 C         142.8409  138.9968  166.3098 C.3     1  UNL1        0.1470
     28 O         143.7289  138.2182  167.2346 O.3     1  UNL1       -0.3787
     29 H         144.0628  137.4314  166.7760 H       1  UNL1        0.2108
     30 C         142.5993  138.5068  164.9129 C.ar    1  UNL1        0.0055
     31 C         141.3949  137.6650  164.6112 C.ar    1  UNL1       -0.0019
     32 C         141.1533  137.1750  163.2143 C.ar    1  UNL1       -0.0002
     33 C         142.1160  137.5266  162.1190 C.ar    1  UNL1       -0.0000
     34 C         143.3203  138.3683  162.4208 C.ar    1  UNL1       -0.0002
     35 C         143.5620  138.8584  163.8177 C.ar    1  UNL1       -0.0019
@<TRIPOS>BOND
     1    12    13    1
     2    13    14   ar
     3    14    15   ar
     4    15    11    1
     5    11     7    1
     6     7     8   am
     7     8     9    2
     8     8     1    1
     9     1     2   ar
    10     2     3   ar
    11     3     4   ar
    12     4    20    1
    13    21    20    1
    14    21    22    1
    15    22    23    1
    16    24    23    1
    17    24    27    1
    18    27    28    1
    19    27    30    1
    20    30    31   ar
    21    31    32   ar
    22    32    33   ar
    23    33    34   ar
    24    34    35   ar
    25    24    25    1
    26     4     5   ar
    27     5     6   ar
    28    15    16   ar
    29    16    17   ar
    30    17    13   ar
    31     6     1   ar
    32    25    21    1
    33    35    30   ar
    34    12    18    1
    35    12    19    1
    36     7    10    1
    37    28    29    1
    38    25    26    1
@<TRIPOS>MOLECULE
*****
 35 38 0 0 0
SMALL
GASTEIGER

@<TRIPOS>ATOM
      1 C         138.0205  141.0207  161.0479 C.ar    1  UNL1        0.0533
      2 C         137.7440  142.0404  162.1126 C.ar    1  UNL1        0.0042
      3 C         137.7631  141.6396  163.5579 C.ar    1  UNL1       -0.0041
      4 C         138.0588  140.2192  163.9385 C.ar    1  UNL1       -0.0208
      5 C         138.3353  139.1994  162.8738 C.ar    1  UNL1       -0.0041
      6 C         138.3162  139.6002  161.4285 C.ar    1  UNL1        0.0042
      7 N         137.6646  140.4092  158.5480 N.am    1  UNL1       -0.2956
      8 C         138.0014  141.4214  159.6025 C.2     1  UNL1        0.2461
      9 O         138.3190  142.8343  159.2117 O.2     1  UNL1       -0.2701
     10 H         137.4561  139.4819  158.8045 H       1  UNL1        0.1501
     11 C         137.6455  140.8099  157.1026 C.3     1  UNL1        0.1366
     12 N         132.6029  140.0342  155.7420 N.pl3   1  UNL1       -0.3375
     13 C         134.0283  140.5013  155.7293 C.ar    1  UNL1        0.1564
     14 N         135.0674  140.1898  156.7653 N.ar    1  UNL1       -0.2271
     15 C         136.3461  140.8578  156.3547 C.ar    1  UNL1        0.0872
     16 C         136.0973  141.5821  155.0649 C.ar    1  UNL1        0.0545
     17 S         134.6649  141.3617  154.6783 S.2     1  UNL1       -0.0517
     18 H         132.2765  139.4693  156.4792 H       1  UNL1        0.1442
     19 H         131.9937  140.2926  155.0130 H       1  UNL1        0.1442
     20 C         138.0779  139.8184  165.3839 C.3     1  UNL1        0.0420
     21 C         139.2607  140.1592  166.2411 C.3     1  UNL1        0.0585
     22 C         139.4056  139.8587  167.7035 C.3     1  UNL1        0.0175
     23 C         140.7407  140.3741  168.1526 C.3     1  UNL1        0.0199
     24 C         141.4211  140.9932  166.9677 C.3     1  UNL1        0.0855
     25 N         140.5064  140.8604  165.7864 N.3     1  UNL1       -0.2971
     26 H         140.9628  140.3156  165.0547 H       1  UNL1        0.1233
     27 C         142.7779  141.6328  166.9648 C.3     1  UNL1        0.1470
     28 O         143.2589  142.3769  168.1751 O.3     1  UNL1       -0.3787
     29 H         144.1485  142.7256  168.0079 H       1  UNL1        0.2108
     30 C         143.6537  141.5283  165.7516 C.ar    1  UNL1        0.0055
     31 C         143.9568  140.1840  165.1590 C.ar    1  UNL1       -0.0019
     32 C         144.8326  140.0795  163.9457 C.ar    1  UNL1       -0.0002
     33 C         145.4053  141.3191  163.3250 C.ar    1  UNL1       -0.0000
     34 C         145.1021  142.6634  163.9176 C.ar    1  UNL1       -0.0002
     35 C         144.2263  142.7679  165.1309 C.ar    1  UNL1       -0.0019
@<TRIPOS>BOND
     1    12    13    1
     2    13    14   ar
     3    14    15   ar
     4    15    11    1
     5    11     7    1
     6     7     8   am
     7     8     9    2
     8     8     1    1
     9     1     2   ar
    10     2     3   ar
    11     3     4   ar
    12     4    20    1
    13    21    20    1
    14    21    22    1
    15    22    23    1
    16    24    23    1
    17    24    27    1
    18    27    28    1
    19    27    30    1
    20    30    31   ar
    21    31    32   ar
    22    32    33   ar
    23    33    34   ar
    24    34    35   ar
    25    24    25    1
    26     4     5   ar
    27     5     6   ar
    28    15    16   ar
    29    16    17   ar
    30    17    13   ar
    31     6     1   ar
    32    25    21    1
    33    35    30   ar
    34    12    18    1
    35    12    19    1
    36     7    10    1
    37    28    29    1
    38    25    26    1
@<TRIPOS>MOLECULE
*****
 35 38 0 0 0
SMALL
GASTEIGER

@<TRIPOS>ATOM
      1 C         138.4189  139.2946  164.9259 C.ar    1  UNL1        0.0533
      2 C         138.9535  138.1465  164.1223 C.ar    1  UNL1        0.0042
      3 C         139.0355  138.2508  162.6282 C.ar    1  UNL1       -0.0041
      4 C         138.5829  139.5031  161.9378 C.ar    1  UNL1       -0.0208
      5 C         138.0482  140.6512  162.7414 C.ar    1  UNL1       -0.0041
      6 C         137.9662  140.5470  164.2355 C.ar    1  UNL1        0.0042
      7 N         139.2562  140.0057  167.2804 N.am    1  UNL1       -0.2956
      8 C         138.3369  139.1904  166.4201 C.2     1  UNL1        0.2461
      9 O         137.3355  138.2709  167.0539 O.2     1  UNL1       -0.2701
     10 H         139.9135  140.6092  166.8644 H       1  UNL1        0.1501
     11 C         139.1742  139.9015  168.7746 C.3     1  UNL1        0.1366
     12 N         143.7975  139.7022  171.3174 N.pl3   1  UNL1       -0.3375
     13 C         142.4805  140.1868  170.7874 C.ar    1  UNL1        0.1564
     14 N         141.5470  139.4132  169.9042 N.ar    1  UNL1       -0.2271
     15 C         140.3555  140.2784  169.6186 C.ar    1  UNL1        0.0872
     16 C         140.5526  141.5868  170.3253 C.ar    1  UNL1        0.0545
     17 S         141.8660  141.5302  171.0477 S.2     1  UNL1       -0.0517
     18 H         144.1176  138.7995  171.0896 H       1  UNL1        0.1442
     19 H         144.3417  140.2868  171.8929 H       1  UNL1        0.1442
     20 C         138.6649  139.6073  160.4436 C.3     1  UNL1        0.0420
     21 C         139.4833  140.6937  159.8113 C.3     1  UNL1        0.0585
     22 C         139.3890  141.1528  158.3864 C.3     1  UNL1        0.0175
     23 C         140.3872  142.2546  158.1874 C.3     1  UNL1        0.0199
     24 C         141.0983  142.4766  159.4893 C.3     1  UNL1        0.0855
     25 N         140.5397  141.5119  160.4930 N.3     1  UNL1       -0.2971
     26 H         140.1304  142.0239  161.2745 H       1  UNL1        0.1233
     27 C         142.1784  143.4861  159.7431 C.3     1  UNL1        0.1470
     28 O         142.9927  144.0166  158.6004 O.3     1  UNL1       -0.3787
     29 H         143.6420  144.6548  158.9349 H       1  UNL1        0.2108
     30 C         142.4444  143.9650  161.1394 C.ar    1  UNL1        0.0055
     31 C         143.7326  143.6105  161.8213 C.ar    1  UNL1       -0.0019
     32 C         143.9986  144.0894  163.2176 C.ar    1  UNL1       -0.0002
     33 C         142.9764  144.9229  163.9321 C.ar    1  UNL1       -0.0000
     34 C         141.6883  145.2775  163.2502 C.ar    1  UNL1       -0.0002
     35 C         141.4223  144.7985  161.8538 C.ar    1  UNL1       -0.0019
@<TRIPOS>BOND
     1    12    13    1
     2    13    14   ar
     3    14    15   ar
     4    15    11    1
     5    11     7    1
     6     7     8   am
     7     8     9    2
     8     8     1    1
     9     1     2   ar
    10     2     3   ar
    11     3     4   ar
    12     4    20    1
    13    21    20    1
    14    21    22    1
    15    22    23    1
    16    24    23    1
    17    24    27    1
    18    27    28    1
    19    27    30    1
    20    30    31   ar
    21    31    32   ar
    22    32    33   ar
    23    33    34   ar
    24    34    35   ar
    25    24    25    1
    26     4     5   ar
    27     5     6   ar
    28    15    16   ar
    29    16    17   ar
    30    17    13   ar
    31     6     1   ar
    32    25    21    1
    33    35    30   ar
    34    12    18    1
    35    12    19    1
    36     7    10    1
    37    28    29    1
    38    25    26    1
@<TRIPOS>MOLECULE
*****
 35 38 0 0 0
SMALL
GASTEIGER

@<TRIPOS>ATOM
      1 C         138.7155  140.6311  160.2449 C.ar    1  UNL1        0.0533
      2 C         137.7674  140.2135  161.3297 C.ar    1  UNL1        0.0042
      3 C         138.2890  139.5333  162.5606 C.ar    1  UNL1       -0.0041
      4 C         139.7586  139.2707  162.7068 C.ar    1  UNL1       -0.0208
      5 C         140.7066  139.6883  161.6220 C.ar    1  UNL1       -0.0041
      6 C         140.1851  140.3685  160.3911 C.ar    1  UNL1        0.0042
      7 N         137.6973  140.4936  157.8586 N.am    1  UNL1       -0.2956
      8 C         138.1939  141.3113  159.0138 C.2     1  UNL1        0.2461
      9 O         138.1690  142.8092  158.9382 O.2     1  UNL1       -0.2701
     10 H         137.7137  139.5105  157.9082 H       1  UNL1        0.1501
     11 C         137.1758  141.1738  156.6275 C.3     1  UNL1        0.1366
     12 N         132.3107  139.1618  156.2235 N.pl3   1  UNL1       -0.3375
     13 C         133.5330  139.9980  155.9852 C.ar    1  UNL1        0.1564
     14 N         134.8264  139.9039  156.7390 N.ar    1  UNL1       -0.2271
     15 C         135.7692  140.9228  156.1709 C.ar    1  UNL1        0.0872
     16 C         135.0585  141.6467  155.0659 C.ar    1  UNL1        0.0545
     17 S         133.6764  141.0752  154.9511 S.2     1  UNL1       -0.0517
     18 H         132.3135  138.4759  156.9298 H       1  UNL1        0.1442
     19 H         131.5056  139.2988  155.6737 H       1  UNL1        0.1442
     20 C         140.2801  138.5905  163.9378 C.3     1  UNL1        0.0420
     21 C         139.6068  138.8125  165.2597 C.3     1  UNL1        0.0585
     22 C         138.2251  138.3626  165.6318 C.3     1  UNL1        0.0175
     23 C         137.9612  138.7954  167.0436 C.3     1  UNL1        0.0199
     24 C         139.1799  139.5128  167.5440 C.3     1  UNL1        0.0855
     25 N         140.1968  139.5234  166.4414 N.3     1  UNL1       -0.2971
     26 H         141.0434  139.0434  166.7468 H       1  UNL1        0.1233
     27 C         139.3513  140.1141  168.9074 C.3     1  UNL1        0.1470
     28 O         138.2879  139.9273  169.9486 O.3     1  UNL1       -0.3787
     29 H         138.5537  140.3761  170.7665 H       1  UNL1        0.2108
     30 C         140.5862  140.9021  169.2297 C.ar    1  UNL1        0.0055
     31 C         141.8872  140.1940  169.4666 C.ar    1  UNL1       -0.0019
     32 C         143.1222  140.9820  169.7889 C.ar    1  UNL1       -0.0002
     33 C         143.0562  142.4781  169.8743 C.ar    1  UNL1       -0.0000
     34 C         141.7552  143.1862  169.6374 C.ar    1  UNL1       -0.0002
     35 C         140.5203  142.3982  169.3151 C.ar    1  UNL1       -0.0019
@<TRIPOS>BOND
     1    12    13    1
     2    13    14   ar
     3    14    15   ar
     4    15    11    1
     5    11     7    1
     6     7     8   am
     7     8     9    2
     8     8     1    1
     9     1     2   ar
    10     2     3   ar
    11     3     4   ar
    12     4    20    1
    13    21    20    1
    14    21    22    1
    15    22    23    1
    16    24    23    1
    17    24    27    1
    18    27    28    1
    19    27    30    1
    20    30    31   ar
    21    31    32   ar
    22    32    33   ar
    23    33    34   ar
    24    34    35   ar
    25    24    25    1
    26     4     5   ar
    27     5     6   ar
    28    15    16   ar
    29    16    17   ar
    30    17    13   ar
    31     6     1   ar
    32    25    21    1
    33    35    30   ar
    34    12    18    1
    35    12    19    1
    36     7    10    1
    37    28    29    1
    38    25    26    1
@<TRIPOS>MOLECULE
*****
 35 38 0 0 0
SMALL
GASTEIGER

@<TRIPOS>ATOM
      1 C         138.7147  139.1624  160.0772 C.ar    1  UNL1        0.0533
      2 C         137.6733  139.5043  161.1011 C.ar    1  UNL1        0.0042
      3 C         137.8529  139.0730  162.5264 C.ar    1  UNL1       -0.0041
      4 C         139.0739  138.2997  162.9279 C.ar    1  UNL1       -0.0208
      5 C         140.1153  137.9577  161.9039 C.ar    1  UNL1       -0.0041
      6 C         139.9357  138.3891  160.4786 C.ar    1  UNL1        0.0042
      7 N         137.6040  140.7223  158.3213 N.am    1  UNL1       -0.2956
      8 C         138.5351  139.5937  158.6517 C.2     1  UNL1        0.2461
      9 O         139.2867  138.8964  157.5568 O.2     1  UNL1       -0.2701
     10 H         137.1107  141.1799  159.0399 H       1  UNL1        0.1501
     11 C         137.4244  141.1536  156.8959 C.3     1  UNL1        0.1366
     12 N         132.4774  139.6153  155.8752 N.pl3   1  UNL1       -0.3375
     13 C         133.8264  140.2587  155.7474 C.ar    1  UNL1        0.1564
     14 N         134.9397  140.1790  156.7495 N.ar    1  UNL1       -0.2271
     15 C         136.1003  140.9657  156.2166 C.ar    1  UNL1        0.0872
     16 C         135.7043  141.5316  154.8850 C.ar    1  UNL1        0.0545
     17 S         134.2990  141.0947  154.5951 S.2     1  UNL1       -0.0517
     18 H         132.2598  139.0825  156.6740 H       1  UNL1        0.1442
     19 H         131.8097  139.7258  155.1603 H       1  UNL1        0.1442
     20 C         139.2535  137.8684  164.3533 C.3     1  UNL1        0.0420
     21 C         139.6819  138.8643  165.3899 C.3     1  UNL1        0.0585
     22 C         138.9237  139.2245  166.6330 C.3     1  UNL1        0.0175
     23 C         139.7169  140.2576  167.3768 C.3     1  UNL1        0.0199
     24 C         140.9656  140.5359  166.5935 C.3     1  UNL1        0.0855
     25 N         140.9439  139.6748  165.3655 N.3     1  UNL1       -0.2971
     26 H         141.7537  139.0545  165.3634 H       1  UNL1        0.1233
     27 C         142.0461  141.5052  166.9717 C.3     1  UNL1        0.1470
     28 O         142.6805  141.4290  168.3288 O.3     1  UNL1       -0.3787
     29 H         143.3546  142.1217  168.4099 H       1  UNL1        0.2108
     30 C         142.4921  142.5505  165.9929 C.ar    1  UNL1        0.0055
     31 C         143.9466  142.8990  165.8787 C.ar    1  UNL1       -0.0019
     32 C         144.3928  143.9444  164.8999 C.ar    1  UNL1       -0.0002
     33 C         143.3844  144.6414  164.0354 C.ar    1  UNL1       -0.0000
     34 C         141.9299  144.2929  164.1496 C.ar    1  UNL1       -0.0002
     35 C         141.4838  143.2475  165.1284 C.ar    1  UNL1       -0.0019
@<TRIPOS>BOND
     1    12    13    1
     2    13    14   ar
     3    14    15   ar
     4    15    11    1
     5    11     7    1
     6     7     8   am
     7     8     9    2
     8     8     1    1
     9     1     2   ar
    10     2     3   ar
    11     3     4   ar
    12     4    20    1
    13    21    20    1
    14    21    22    1
    15    22    23    1
    16    24    23    1
    17    24    27    1
    18    27    28    1
    19    27    30    1
    20    30    31   ar
    21    31    32   ar
    22    32    33   ar
    23    33    34   ar
    24    34    35   ar
    25    24    25    1
    26     4     5   ar
    27     5     6   ar
    28    15    16   ar
    29    16    17   ar
    30    17    13   ar
    31     6     1   ar
    32    25    21    1
    33    35    30   ar
    34    12    18    1
    35    12    19    1
    36     7    10    1
    37    28    29    1
    38    25    26    1
@<TRIPOS>MOLECULE
*****
 35 38 0 0 0
SMALL
GASTEIGER

@<TRIPOS>ATOM
      1 C         143.0307  138.6417  159.6804 C.ar    1  UNL1        0.0533
      2 C         143.5163  140.0599  159.6275 C.ar    1  UNL1        0.0042
      3 C         144.1575  140.6785  160.8342 C.ar    1  UNL1       -0.0041
      4 C         144.3131  139.8789  162.0937 C.ar    1  UNL1       -0.0208
      5 C         143.8275  138.4607  162.1466 C.ar    1  UNL1       -0.0041
      6 C         143.1863  137.8421  160.9399 C.ar    1  UNL1        0.0042
      7 N         143.2378  137.3512  157.4350 N.am    1  UNL1       -0.2956
      8 C         142.3894  138.0231  158.4736 C.2     1  UNL1        0.2461
      9 O         140.8998  138.0763  158.3057 O.2     1  UNL1       -0.2701
     10 H         144.2154  137.3163  157.5452 H       1  UNL1        0.1501
     11 C         142.5965  136.7326  156.2282 C.3     1  UNL1        0.1366
     12 N         140.8644  131.9323  154.8728 N.pl3   1  UNL1       -0.3375
     13 C         141.6493  133.0364  155.5169 C.ar    1  UNL1        0.1564
     14 N         141.4446  134.5064  155.2998 N.ar    1  UNL1       -0.2271
     15 C         142.4455  135.2429  156.1399 C.ar    1  UNL1        0.0872
     16 C         143.2688  134.2280  156.8763 C.ar    1  UNL1        0.0545
     17 S         142.7768  132.8643  156.4912 S.2     1  UNL1       -0.0517
     18 H         140.1388  132.1468  154.2429 H       1  UNL1        0.1442
     19 H         141.0748  130.9931  155.0799 H       1  UNL1        0.1442
     20 C         144.9544  140.4976  163.3005 C.3     1  UNL1        0.0420
     21 C         144.1763  141.4519  164.1570 C.3     1  UNL1        0.0585
     22 C         144.7288  142.6546  164.8628 C.3     1  UNL1        0.0175
     23 C         143.6030  143.3172  165.6001 C.3     1  UNL1        0.0199
     24 C         142.3547  142.5239  165.3500 C.3     1  UNL1        0.0855
     25 N         142.7090  141.3711  164.4581 N.3     1  UNL1       -0.2971
     26 H         142.1742  141.4269  163.5914 H       1  UNL1        0.1233
     27 C         140.9915  142.8297  165.8960 C.3     1  UNL1        0.1470
     28 O         140.1248  143.8508  165.2205 O.3     1  UNL1       -0.3787
     29 H         139.2833  143.9268  165.6971 H       1  UNL1        0.2108
     30 C         140.4949  142.1146  167.1174 C.ar    1  UNL1        0.0055
     31 C         140.6281  142.7548  168.4674 C.ar    1  UNL1       -0.0019
     32 C         140.1315  142.0396  169.6888 C.ar    1  UNL1       -0.0002
     33 C         139.5019  140.6843  169.5603 C.ar    1  UNL1       -0.0000
     34 C         139.3687  140.0441  168.2103 C.ar    1  UNL1       -0.0002
     35 C         139.8653  140.7592  166.9889 C.ar    1  UNL1       -0.0019
@<TRIPOS>BOND
     1    12    13    1
     2    13    14   ar
     3    14    15   ar
     4    15    11    1
     5    11     7    1
     6     7     8   am
     7     8     9    2
     8     8     1    1
     9     1     2   ar
    10     2     3   ar
    11     3     4   ar
    12     4    20    1
    13    21    20    1
    14    21    22    1
    15    22    23    1
    16    24    23    1
    17    24    27    1
    18    27    28    1
    19    27    30    1
    20    30    31   ar
    21    31    32   ar
    22    32    33   ar
    23    33    34   ar
    24    34    35   ar
    25    24    25    1
    26     4     5   ar
    27     5     6   ar
    28    15    16   ar
    29    16    17   ar
    30    17    13   ar
    31     6     1   ar
    32    25    21    1
    33    35    30   ar
    34    12    18    1
    35    12    19    1
    36     7    10    1
    37    28    29    1
    38    25    26    1
@<TRIPOS>MOLECULE
*****
 35 38 0 0 0
SMALL
GASTEIGER

@<TRIPOS>ATOM
      1 C         142.9621  138.8950  159.6393 C.ar    1  UNL1        0.0533
      2 C         143.3602  138.1401  160.8728 C.ar    1  UNL1        0.0042
      3 C         144.0507  138.8525  161.9979 C.ar    1  UNL1       -0.0041
      4 C         144.3432  140.3197  161.8893 C.ar    1  UNL1       -0.0208
      5 C         143.9451  141.0745  160.6558 C.ar    1  UNL1       -0.0041
      6 C         143.2546  140.3622  159.5308 C.ar    1  UNL1        0.0042
      7 N         143.0785  137.4605  157.4762 N.am    1  UNL1       -0.2956
      8 C         142.2716  138.1827  158.5142 C.2     1  UNL1        0.2461
      9 O         140.7741  138.1926  158.4270 O.2     1  UNL1       -0.2701
     10 H         144.0613  137.4540  157.5334 H       1  UNL1        0.1501
     11 C         142.3879  136.7482  156.3511 C.3     1  UNL1        0.1366
     12 N         143.3693  131.6857  157.4863 N.pl3   1  UNL1       -0.3375
     13 C         142.8456  132.9223  156.8179 C.ar    1  UNL1        0.1564
     14 N         143.1118  134.3353  157.2450 N.ar    1  UNL1       -0.2271
     15 C         142.3945  135.2492  156.2961 C.ar    1  UNL1        0.0872
     16 C         141.6850  134.4010  155.2827 C.ar    1  UNL1        0.0545
     17 S         141.9638  132.9628  155.6051 S.2     1  UNL1       -0.0517
     18 H         143.9444  131.7621  158.2817 H       1  UNL1        0.1442
     19 H         143.1378  130.7978  157.1296 H       1  UNL1        0.1442
     20 C         145.0337  141.0320  163.0145 C.3     1  UNL1        0.0420
     21 C         144.3114  141.2693  164.3075 C.3     1  UNL1        0.0585
     22 C         144.1083  142.5981  164.9729 C.3     1  UNL1        0.0175
     23 C         143.3368  142.3695  166.2388 C.3     1  UNL1        0.0199
     24 C         143.0631  140.8993  166.3557 C.3     1  UNL1        0.0855
     25 N         143.6654  140.2193  165.1621 N.3     1  UNL1       -0.2971
     26 H         142.9370  139.7413  164.6318 H       1  UNL1        0.1233
     27 C         142.3178  140.2271  167.4705 C.3     1  UNL1        0.1470
     28 O         142.9972  139.9801  168.7849 O.3     1  UNL1       -0.3787
     29 H         142.3798  139.5406  169.3904 H       1  UNL1        0.2108
     30 C         140.8933  139.8019  167.2711 C.ar    1  UNL1        0.0055
     31 C         139.8899  140.0034  168.3677 C.ar    1  UNL1       -0.0019
     32 C         138.4654  139.5782  168.1683 C.ar    1  UNL1       -0.0002
     33 C         138.0442  138.9515  166.8722 C.ar    1  UNL1       -0.0000
     34 C         139.0476  138.7500  165.7756 C.ar    1  UNL1       -0.0002
     35 C         140.4722  139.1752  165.9750 C.ar    1  UNL1       -0.0019
@<TRIPOS>BOND
     1    12    13    1
     2    13    14   ar
     3    14    15   ar
     4    15    11    1
     5    11     7    1
     6     7     8   am
     7     8     9    2
     8     8     1    1
     9     1     2   ar
    10     2     3   ar
    11     3     4   ar
    12     4    20    1
    13    21    20    1
    14    21    22    1
    15    22    23    1
    16    24    23    1
    17    24    27    1
    18    27    28    1
    19    27    30    1
    20    30    31   ar
    21    31    32   ar
    22    32    33   ar
    23    33    34   ar
    24    34    35   ar
    25    24    25    1
    26     4     5   ar
    27     5     6   ar
    28    15    16   ar
    29    16    17   ar
    30    17    13   ar
    31     6     1   ar
    32    25    21    1
    33    35    30   ar
    34    12    18    1
    35    12    19    1
    36     7    10    1
    37    28    29    1
    38    25    26    1
@<TRIPOS>MOLECULE
*****
 35 38 0 0 0
SMALL
GASTEIGER

@<TRIPOS>ATOM
      1 C         138.4711  142.5307  158.4187 C.ar    1  UNL1        0.0533
      2 C         139.3396  143.6208  157.8642 C.ar    1  UNL1        0.0042
      3 C         140.1585  144.4710  158.7897 C.ar    1  UNL1       -0.0041
      4 C         140.1090  144.2311  160.2695 C.ar    1  UNL1       -0.0208
      5 C         139.2405  143.1410  160.8240 C.ar    1  UNL1       -0.0041
      6 C         138.4216  142.2908  159.8986 C.ar    1  UNL1        0.0042
      7 N         136.6794  142.3221  156.5488 N.am    1  UNL1       -0.2956
      8 C         137.6521  141.6804  157.4932 C.2     1  UNL1        0.2461
      9 O         137.8060  140.1884  157.5123 O.2     1  UNL1       -0.2701
     10 H         136.5785  143.3013  156.5363 H       1  UNL1        0.1501
     11 C         135.8604  141.4718  155.6234 C.3     1  UNL1        0.1366
     12 N         132.4154  138.5302  158.3362 N.pl3   1  UNL1       -0.3375
     13 C         132.9982  139.5023  157.3536 C.ar    1  UNL1        0.1564
     14 N         134.4519  139.8411  157.2050 N.ar    1  UNL1       -0.2271
     15 C         134.5817  140.8544  156.1066 C.ar    1  UNL1        0.0872
     16 C         133.2083  141.1418  155.5764 C.ar    1  UNL1        0.0545
     17 S         132.2296  140.3062  156.3471 S.2     1  UNL1       -0.0517
     18 H         133.0049  138.0478  158.9600 H       1  UNL1        0.1442
     19 H         131.4436  138.3746  158.3573 H       1  UNL1        0.1442
     20 C         140.9280  145.0814  161.1950 C.3     1  UNL1        0.0420
     21 C         142.1237  144.4985  161.8881 C.3     1  UNL1        0.0585
     22 C         142.9003  145.1425  162.9980 C.3     1  UNL1        0.0175
     23 C         144.0093  144.2113  163.3889 C.3     1  UNL1        0.0199
     24 C         143.9181  142.9916  162.5204 C.3     1  UNL1        0.0855
     25 N         142.7527  143.1691  161.5929 N.3     1  UNL1       -0.2971
     26 H         142.0734  142.4235  161.7440 H       1  UNL1        0.1233
     27 C         144.8319  141.8031  162.5707 C.3     1  UNL1        0.1470
     28 O         146.2356  141.9572  163.0767 O.3     1  UNL1       -0.3787
     29 H         146.6873  141.0994  163.0431 H       1  UNL1        0.2108
     30 C         144.3421  140.4606  162.1150 C.ar    1  UNL1        0.0055
     31 C         144.2359  140.1589  160.6495 C.ar    1  UNL1       -0.0019
     32 C         143.7460  138.8164  160.1938 C.ar    1  UNL1       -0.0002
     33 C         143.3624  137.7756  161.2035 C.ar    1  UNL1       -0.0000
     34 C         143.4687  138.0774  162.6690 C.ar    1  UNL1       -0.0002
     35 C         143.9585  139.4199  163.1248 C.ar    1  UNL1       -0.0019
@<TRIPOS>BOND
     1    12    13    1
     2    13    14   ar
     3    14    15   ar
     4    15    11    1
     5    11     7    1
     6     7     8   am
     7     8     9    2
     8     8     1    1
     9     1     2   ar
    10     2     3   ar
    11     3     4   ar
    12     4    20    1
    13    21    20    1
    14    21    22    1
    15    22    23    1
    16    24    23    1
    17    24    27    1
    18    27    28    1
    19    27    30    1
    20    30    31   ar
    21    31    32   ar
    22    32    33   ar
    23    33    34   ar
    24    34    35   ar
    25    24    25    1
    26     4     5   ar
    27     5     6   ar
    28    15    16   ar
    29    16    17   ar
    30    17    13   ar
    31     6     1   ar
    32    25    21    1
    33    35    30   ar
    34    12    18    1
    35    12    19    1
    36     7    10    1
    37    28    29    1
    38    25    26    1
