@<TRIPOS>MOLECULE
*****
 28 31 0 0 0
SMALL
GASTEIGER

@<TRIPOS>ATOM
      1 C         139.4918  141.6226  164.6553 C.ar    1  UNL1        0.0681
      2 C         140.1331  141.1213  163.3954 C.ar    1  UNL1        0.0208
      3 C         139.6508  141.6109  162.0622 C.ar    1  UNL1        0.0384
      4 C         138.5271  142.6018  161.9888 C.ar    1  UNL1        0.1386
      5 C         137.8858  143.1031  163.2488 C.ar    1  UNL1        0.0384
      6 C         138.3681  142.6135  164.5820 C.ar    1  UNL1        0.0208
      7 C         138.0574  139.3797  166.0380 C.3     1  UNL1        0.0723
      8 C         139.2569  140.0114  166.6800 C.ar    1  UNL1        0.1268
      9 N         139.7393  139.5217  168.0132 N.ar    1  UNL1       -0.2318
     10 C         140.9388  140.1534  168.6551 C.ar    1  UNL1        0.0872
     11 C         141.4211  139.6637  169.9883 C.ar    1  UNL1        0.0193
     12 C         142.6207  140.2955  170.6302 C.ar    1  UNL1        0.0015
     13 C         143.3379  141.4169  169.9388 C.ar    1  UNL1        0.0003
     14 C         142.8555  141.9066  168.6056 C.ar    1  UNL1        0.0063
     15 C         141.6560  141.2749  167.9638 C.ar    1  UNL1        0.0742
     16 C         141.1737  141.7646  166.6305 C.ar    1  UNL1        0.2669
     17 O         141.8909  142.8860  165.9391 O.2     1  UNL1       -0.2665
     18 N         139.9741  141.1329  165.9886 N.ar    1  UNL1       -0.2626
     19 O         138.0448  143.0915  160.6555 O.3     1  UNL1       -0.4754
     20 C         138.8548  142.8262  159.4213 C.3     1  UNL1        0.2068
     21 C         139.8807  143.8226  158.9689 C.3     1  UNL1        0.0646
     22 C         140.1273  145.0636  159.7746 C.3     1  UNL1        0.0759
     23 N         140.9171  144.9867  161.0475 N.3     1  UNL1       -0.2726
     24 C         140.5496  145.6272  162.3532 C.3     1  UNL1        0.0721
     25 C         141.6184  145.2922  163.3509 C.3     1  UNL1        0.0187
     26 C         142.6466  144.4447  162.6619 C.3     1  UNL1        0.0174
     27 C         143.8898  143.8844  163.2866 C.3     1  UNL1        0.0015
     28 C         142.2131  144.2559  161.2382 C.3     1  UNL1        0.0721
@<TRIPOS>BOND
     1     7     8    1
     2     8     9   ar
     3     9    10   ar
     4    10    11   ar
     5    11    12   ar
     6    12    13   ar
     7    13    14   ar
     8    14    15   ar
     9    15    16   ar
    10    16    17    2
    11    16    18   ar
    12    18     1    1
    13     1     2   ar
    14     2     3   ar
    15     3     4   ar
    16     4    19    1
    17    19    20    1
    18    20    21    1
    19    21    22    1
    20    22    23    1
    21    23    24    1
    22    24    25    1
    23    25    26    1
    24    26    27    1
    25    26    28    1
    26     4     5   ar
    27     5     6   ar
    28    18     8   ar
    29     6     1   ar
    30    15    10   ar
    31    28    23    1
@<TRIPOS>MOLECULE
*****
 28 31 0 0 0
SMALL
GASTEIGER

@<TRIPOS>ATOM
      1 C         139.5199  141.5310  164.6345 C.ar    1  UNL1        0.0681
      2 C         140.4146  141.4029  163.4375 C.ar    1  UNL1        0.0208
      3 C         139.9318  141.8488  162.0891 C.ar    1  UNL1        0.0384
      4 C         138.5543  142.4228  161.9379 C.ar    1  UNL1        0.1386
      5 C         137.6596  142.5509  163.1350 C.ar    1  UNL1        0.0384
      6 C         138.1424  142.1050  164.4833 C.ar    1  UNL1        0.0208
      7 C         138.1116  139.3058  166.0716 C.3     1  UNL1        0.0723
      8 C         139.2986  139.9724  166.7014 C.ar    1  UNL1        0.1268
      9 N         139.7814  139.5264  168.0498 N.ar    1  UNL1       -0.2318
     10 C         140.9684  140.1931  168.6796 C.ar    1  UNL1        0.0872
     11 C         141.4512  139.7471  170.0279 C.ar    1  UNL1        0.0193
     12 C         142.6381  140.4138  170.6577 C.ar    1  UNL1        0.0015
     13 C         143.3423  141.5264  169.9392 C.ar    1  UNL1        0.0003
     14 C         142.8595  141.9723  168.5909 C.ar    1  UNL1        0.0063
     15 C         141.6725  141.3057  167.9611 C.ar    1  UNL1        0.0742
     16 C         141.1897  141.7516  166.6127 C.ar    1  UNL1        0.2669
     17 O         141.8939  142.8642  165.8942 O.2     1  UNL1       -0.2665
     18 N         140.0027  141.0850  165.9829 N.ar    1  UNL1       -0.2626
     19 O         138.0715  142.8688  160.5895 O.3     1  UNL1       -0.4754
     20 C         138.5685  142.1842  159.3508 C.3     1  UNL1        0.2068
     21 C         138.0070  140.8511  158.9540 C.3     1  UNL1        0.0646
     22 C         138.8417  139.6131  159.0969 C.3     1  UNL1        0.0759
     23 N         138.9970  138.9642  160.4403 N.3     1  UNL1       -0.2726
     24 C         137.9088  138.7614  161.4526 C.3     1  UNL1        0.0721
     25 C         138.5070  138.0760  162.6452 C.3     1  UNL1        0.0187
     26 C         139.9649  137.8551  162.3701 C.3     1  UNL1        0.0174
     27 C         140.9475  137.2003  163.2952 C.3     1  UNL1        0.0015
     28 C         140.2678  138.4041  161.0073 C.3     1  UNL1        0.0721
@<TRIPOS>BOND
     1     7     8    1
     2     8     9   ar
     3     9    10   ar
     4    10    11   ar
     5    11    12   ar
     6    12    13   ar
     7    13    14   ar
     8    14    15   ar
     9    15    16   ar
    10    16    17    2
    11    16    18   ar
    12    18     1    1
    13     1     2   ar
    14     2     3   ar
    15     3     4   ar
    16     4    19    1
    17    19    20    1
    18    20    21    1
    19    21    22    1
    20    22    23    1
    21    23    24    1
    22    24    25    1
    23    25    26    1
    24    26    27    1
    25    26    28    1
    26     4     5   ar
    27     5     6   ar
    28    18     8   ar
    29     6     1   ar
    30    15    10   ar
    31    28    23    1
@<TRIPOS>MOLECULE
*****
 28 31 0 0 0
SMALL
GASTEIGER

@<TRIPOS>ATOM
      1 C         140.8237  139.0830  164.8147 C.ar    1  UNL1        0.0681
      2 C         141.2142  139.9787  163.6766 C.ar    1  UNL1        0.0208
      3 C         140.7591  139.6622  162.2828 C.ar    1  UNL1        0.0384
      4 C         139.9135  138.4500  162.0272 C.ar    1  UNL1        0.1386
      5 C         139.5230  137.5543  163.1653 C.ar    1  UNL1        0.0384
      6 C         139.9781  137.8708  164.5591 C.ar    1  UNL1        0.0208
      7 C         143.5453  138.2205  165.7361 C.3     1  UNL1        0.0723
      8 C         142.6397  138.9684  166.6692 C.ar    1  UNL1        0.1268
      9 N         143.0949  139.2849  168.0630 N.ar    1  UNL1       -0.2318
     10 C         142.1893  140.0328  168.9961 C.ar    1  UNL1        0.0872
     11 C         142.6445  140.3493  170.3898 C.ar    1  UNL1        0.0193
     12 C         141.7389  141.0972  171.3228 C.ar    1  UNL1        0.0015
     13 C         140.3781  141.5285  170.8621 C.ar    1  UNL1        0.0003
     14 C         139.9229  141.2119  169.4684 C.ar    1  UNL1        0.0063
     15 C         140.8285  140.4641  168.5354 C.ar    1  UNL1        0.0742
     16 C         140.3733  140.1475  167.1416 C.ar    1  UNL1        0.2669
     17 O         139.0125  140.5788  166.6809 O.2     1  UNL1       -0.2665
     18 N         141.2789  139.3996  166.2085 N.ar    1  UNL1       -0.2626
     19 O         139.4583  138.1334  160.6334 O.3     1  UNL1       -0.4754
     20 C         139.1182  139.2446  159.6849 C.3     1  UNL1        0.2068
     21 C         137.9828  140.1744  159.9952 C.3     1  UNL1        0.0646
     22 C         138.2592  141.6104  160.3291 C.3     1  UNL1        0.0759
     23 N         138.1229  142.0912  161.7433 N.3     1  UNL1       -0.2726
     24 C         137.4838  141.3387  162.8727 C.3     1  UNL1        0.0721
     25 C         137.5676  142.1913  164.1040 C.3     1  UNL1        0.0187
     26 C         138.2585  143.4708  163.7356 C.3     1  UNL1        0.0174
     27 C         138.5543  144.6118  164.6633 C.3     1  UNL1        0.0015
     28 C         138.6017  143.4089  162.2767 C.3     1  UNL1        0.0721
@<TRIPOS>BOND
     1     7     8    1
     2     8     9   ar
     3     9    10   ar
     4    10    11   ar
     5    11    12   ar
     6    12    13   ar
     7    13    14   ar
     8    14    15   ar
     9    15    16   ar
    10    16    17    2
    11    16    18   ar
    12    18     1    1
    13     1     2   ar
    14     2     3   ar
    15     3     4   ar
    16     4    19    1
    17    19    20    1
    18    20    21    1
    19    21    22    1
    20    22    23    1
    21    23    24    1
    22    24    25    1
    23    25    26    1
    24    26    27    1
    25    26    28    1
    26     4     5   ar
    27     5     6   ar
    28    18     8   ar
    29     6     1   ar
    30    15    10   ar
    31    28    23    1
@<TRIPOS>MOLECULE
*****
 28 31 0 0 0
SMALL
GASTEIGER

@<TRIPOS>ATOM
      1 C         140.0980  139.3628  164.9421 C.ar    1  UNL1        0.0681
      2 C         139.5387  140.3095  163.9219 C.ar    1  UNL1        0.0208
      3 C         139.4321  139.8879  162.4864 C.ar    1  UNL1        0.0384
      4 C         139.8849  138.5196  162.0710 C.ar    1  UNL1        0.1386
      5 C         140.4442  137.5728  163.0912 C.ar    1  UNL1        0.0384
      6 C         140.5507  137.9944  164.5268 C.ar    1  UNL1        0.0208
      7 C         137.8881  138.7130  166.8642 C.3     1  UNL1        0.0723
      8 C         139.0995  139.4595  167.3388 C.ar    1  UNL1        0.1268
      9 N         139.2060  139.8811  168.7744 N.ar    1  UNL1       -0.2318
     10 C         140.4175  140.6277  169.2490 C.ar    1  UNL1        0.0872
     11 C         140.5239  141.0493  170.6845 C.ar    1  UNL1        0.0193
     12 C         141.7353  141.7958  171.1590 C.ar    1  UNL1        0.0015
     13 C         142.8403  142.1206  170.1980 C.ar    1  UNL1        0.0003
     14 C         142.7338  141.6990  168.7624 C.ar    1  UNL1        0.0063
     15 C         141.5224  140.9525  168.2879 C.ar    1  UNL1        0.0742
     16 C         141.4159  140.5309  166.8523 C.ar    1  UNL1        0.2669
     17 O         142.5208  140.8558  165.8913 O.2     1  UNL1       -0.2665
     18 N         140.2045  139.7844  166.3778 N.ar    1  UNL1       -0.2626
     19 O         139.7784  138.0979  160.6354 O.3     1  UNL1       -0.4754
     20 C         140.7688  138.6049  159.6294 C.3     1  UNL1        0.2068
     21 C         142.2086  138.1949  159.7220 C.3     1  UNL1        0.0646
     22 C         143.2767  139.2367  159.8768 C.3     1  UNL1        0.0759
     23 N         143.8363  139.5410  161.2348 N.3     1  UNL1       -0.2726
     24 C         143.8560  138.6083  162.4096 C.3     1  UNL1        0.0721
     25 C         144.5064  139.3222  163.5573 C.3     1  UNL1        0.0187
     26 C         144.8886  140.6961  163.0920 C.3     1  UNL1        0.0174
     27 C         145.5660  141.7497  163.9172 C.3     1  UNL1        0.0015
     28 C         144.4745  140.8312  161.6566 C.3     1  UNL1        0.0721
@<TRIPOS>BOND
     1     7     8    1
     2     8     9   ar
     3     9    10   ar
     4    10    11   ar
     5    11    12   ar
     6    12    13   ar
     7    13    14   ar
     8    14    15   ar
     9    15    16   ar
    10    16    17    2
    11    16    18   ar
    12    18     1    1
    13     1     2   ar
    14     2     3   ar
    15     3     4   ar
    16     4    19    1
    17    19    20    1
    18    20    21    1
    19    21    22    1
    20    22    23    1
    21    23    24    1
    22    24    25    1
    23    25    26    1
    24    26    27    1
    25    26    28    1
    26     4     5   ar
    27     5     6   ar
    28    18     8   ar
    29     6     1   ar
    30    15    10   ar
    31    28    23    1
@<TRIPOS>MOLECULE
*****
 28 31 0 0 0
SMALL
GASTEIGER

@<TRIPOS>ATOM
      1 C         142.9984  139.9133  164.4217 C.ar    1  UNL1        0.0681
      2 C         142.0748  139.1054  163.5590 C.ar    1  UNL1        0.0208
      3 C         142.4195  138.8544  162.1209 C.ar    1  UNL1        0.0384
      4 C         143.6879  139.4113  161.5456 C.ar    1  UNL1        0.1386
      5 C         144.6115  140.2192  162.4083 C.ar    1  UNL1        0.0384
      6 C         144.2668  140.4702  163.8464 C.ar    1  UNL1        0.0208
      7 C         143.9081  137.9930  166.5395 C.3     1  UNL1        0.0723
      8 C         143.1085  139.2041  166.9187 C.ar    1  UNL1        0.1268
      9 N         142.7637  139.4551  168.3568 N.ar    1  UNL1       -0.2318
     10 C         141.9640  140.6662  168.7361 C.ar    1  UNL1        0.0872
     11 C         141.6193  140.9171  170.1742 C.ar    1  UNL1        0.0193
     12 C         140.8197  142.1282  170.5534 C.ar    1  UNL1        0.0015
     13 C         140.3648  143.0883  169.4945 C.ar    1  UNL1        0.0003
     14 C         140.7096  142.8374  168.0564 C.ar    1  UNL1        0.0063
     15 C         141.5092  141.6263  167.6772 C.ar    1  UNL1        0.0742
     16 C         141.8540  141.3754  166.2391 C.ar    1  UNL1        0.2669
     17 O         141.3991  142.3355  165.1802 O.2     1  UNL1       -0.2665
     18 N         142.6536  140.1643  165.8599 N.ar    1  UNL1       -0.2626
     19 O         144.0327  139.1603  160.1074 O.3     1  UNL1       -0.4754
     20 C         143.9500  140.2779  159.1103 C.3     1  UNL1        0.2068
     21 C         143.1090  141.4846  159.4043 C.3     1  UNL1        0.0646
     22 C         143.7639  142.7881  159.7537 C.3     1  UNL1        0.0759
     23 N         143.3510  143.5267  160.9922 N.3     1  UNL1       -0.2726
     24 C         141.9966  144.1140  161.2583 C.3     1  UNL1        0.0721
     25 C         142.0284  144.7579  162.6127 C.3     1  UNL1        0.0187
     26 C         143.4025  144.5686  163.1838 C.3     1  UNL1        0.0174
     27 C         143.8760  145.0548  164.5214 C.3     1  UNL1        0.0015
     28 C         144.2199  143.8076  162.1823 C.3     1  UNL1        0.0721
@<TRIPOS>BOND
     1     7     8    1
     2     8     9   ar
     3     9    10   ar
     4    10    11   ar
     5    11    12   ar
     6    12    13   ar
     7    13    14   ar
     8    14    15   ar
     9    15    16   ar
    10    16    17    2
    11    16    18   ar
    12    18     1    1
    13     1     2   ar
    14     2     3   ar
    15     3     4   ar
    16     4    19    1
    17    19    20    1
    18    20    21    1
    19    21    22    1
    20    22    23    1
    21    23    24    1
    22    24    25    1
    23    25    26    1
    24    26    27    1
    25    26    28    1
    26     4     5   ar
    27     5     6   ar
    28    18     8   ar
    29     6     1   ar
    30    15    10   ar
    31    28    23    1
@<TRIPOS>MOLECULE
*****
 28 31 0 0 0
SMALL
GASTEIGER

@<TRIPOS>ATOM
      1 C         140.7548  139.1382  164.6063 C.ar    1  UNL1        0.0681
      2 C         140.8788  140.1956  163.5497 C.ar    1  UNL1        0.0208
      3 C         140.4563  139.9013  162.1408 C.ar    1  UNL1        0.0384
      4 C         139.9099  138.5495  161.7887 C.ar    1  UNL1        0.1386
      5 C         139.7859  137.4921  162.8453 C.ar    1  UNL1        0.0384
      6 C         140.2084  137.7865  164.2541 C.ar    1  UNL1        0.0208
      7 C         143.5050  138.3823  165.5365 C.3     1  UNL1        0.0723
      8 C         142.5524  139.0547  166.4803 C.ar    1  UNL1        0.1268
      9 N         142.9750  139.3490  167.8891 N.ar    1  UNL1       -0.2318
     10 C         142.0224  140.0214  168.8329 C.ar    1  UNL1        0.0872
     11 C         142.4450  140.3157  170.2417 C.ar    1  UNL1        0.0193
     12 C         141.4924  140.9880  171.1854 C.ar    1  UNL1        0.0015
     13 C         140.1174  141.3660  170.7203 C.ar    1  UNL1        0.0003
     14 C         139.6948  141.0716  169.3115 C.ar    1  UNL1        0.0063
     15 C         140.6474  140.3993  168.3678 C.ar    1  UNL1        0.0742
     16 C         140.2248  140.1049  166.9589 C.ar    1  UNL1        0.2669
     17 O         138.8497  140.4829  166.4938 O.2     1  UNL1       -0.2665
     18 N         141.1774  139.4326  166.0152 N.ar    1  UNL1       -0.2626
     19 O         139.4873  138.2551  160.3798 O.3     1  UNL1       -0.4754
     20 C         140.0778  139.0334  159.2416 C.3     1  UNL1        0.2068
     21 C         141.0936  138.3933  158.3425 C.3     1  UNL1        0.0646
     22 C         142.5476  138.7289  158.4950 C.3     1  UNL1        0.0759
     23 N         143.1547  138.8290  159.8630 N.3     1  UNL1       -0.2726
     24 C         143.3111  137.7040  160.8427 C.3     1  UNL1        0.0721
     25 C         143.9651  138.2514  162.0767 C.3     1  UNL1        0.0187
     26 C         144.2128  139.7148  161.8597 C.3     1  UNL1        0.0174
     27 C         144.8495  140.6560  162.8388 C.3     1  UNL1        0.0015
     28 C         143.7120  140.0718  160.4915 C.3     1  UNL1        0.0721
@<TRIPOS>BOND
     1     7     8    1
     2     8     9   ar
     3     9    10   ar
     4    10    11   ar
     5    11    12   ar
     6    12    13   ar
     7    13    14   ar
     8    14    15   ar
     9    15    16   ar
    10    16    17    2
    11    16    18   ar
    12    18     1    1
    13     1     2   ar
    14     2     3   ar
    15     3     4   ar
    16     4    19    1
    17    19    20    1
    18    20    21    1
    19    21    22    1
    20    22    23    1
    21    23    24    1
    22    24    25    1
    23    25    26    1
    24    26    27    1
    25    26    28    1
    26     4     5   ar
    27     5     6   ar
    28    18     8   ar
    29     6     1   ar
    30    15    10   ar
    31    28    23    1
@<TRIPOS>MOLECULE
*****
 28 31 0 0 0
SMALL
GASTEIGER

@<TRIPOS>ATOM
      1 C         139.8390  139.1977  159.8166 C.ar    1  UNL1        0.0681
      2 C         138.9230  138.4682  160.7541 C.ar    1  UNL1        0.0208
      3 C         137.9937  139.2379  161.6451 C.ar    1  UNL1        0.0384
      4 C         137.9804  140.7371  161.5986 C.ar    1  UNL1        0.1386
      5 C         138.8964  141.4666  160.6611 C.ar    1  UNL1        0.0384
      6 C         139.8257  140.6969  159.7701 C.ar    1  UNL1        0.0208
      7 C         142.5612  138.4161  160.8060 C.3     1  UNL1        0.0723
      8 C         142.1295  138.0371  159.4203 C.ar    1  UNL1        0.1268
      9 N         143.0588  137.2673  158.5294 N.ar    1  UNL1       -0.2318
     10 C         142.6270  136.8883  157.1437 C.ar    1  UNL1        0.0872
     11 C         143.5563  136.1185  156.2528 C.ar    1  UNL1        0.0193
     12 C         143.1245  135.7395  154.8672 C.ar    1  UNL1        0.0015
     13 C         141.7634  136.1303  154.3726 C.ar    1  UNL1        0.0003
     14 C         140.8341  136.9000  155.2635 C.ar    1  UNL1        0.0063
     15 C         141.2659  137.2790  156.6491 C.ar    1  UNL1        0.0742
     16 C         140.3366  138.0489  157.5401 C.ar    1  UNL1        0.2669
     17 O         138.9755  138.4396  157.0454 O.2     1  UNL1       -0.2665
     18 N         140.7684  138.4279  158.9256 N.ar    1  UNL1       -0.2626
     19 O         137.0511  141.5069  162.4896 O.3     1  UNL1       -0.4754
     20 C         137.5419  142.7283  163.2089 C.3     1  UNL1        0.2068
     21 C         138.0378  142.6189  164.6203 C.3     1  UNL1        0.0646
     22 C         139.3389  141.9299  164.9068 C.3     1  UNL1        0.0759
     23 N         139.4182  140.4324  164.8722 N.3     1  UNL1       -0.2726
     24 C         138.3726  139.4822  165.3764 C.3     1  UNL1        0.0721
     25 C         138.8651  138.0847  165.1432 C.3     1  UNL1        0.0187
     26 C         140.2150  138.1711  164.4948 C.3     1  UNL1        0.0174
     27 C         141.0725  137.0103  164.0857 C.3     1  UNL1        0.0015
     28 C         140.5568  139.6221  164.3273 C.3     1  UNL1        0.0721
@<TRIPOS>BOND
     1     7     8    1
     2     8     9   ar
     3     9    10   ar
     4    10    11   ar
     5    11    12   ar
     6    12    13   ar
     7    13    14   ar
     8    14    15   ar
     9    15    16   ar
    10    16    17    2
    11    16    18   ar
    12    18     1    1
    13     1     2   ar
    14     2     3   ar
    15     3     4   ar
    16     4    19    1
    17    19    20    1
    18    20    21    1
    19    21    22    1
    20    22    23    1
    21    23    24    1
    22    24    25    1
    23    25    26    1
    24    26    27    1
    25    26    28    1
    26     4     5   ar
    27     5     6   ar
    28    18     8   ar
    29     6     1   ar
    30    15    10   ar
    31    28    23    1
@<TRIPOS>MOLECULE
*****
 28 31 0 0 0
SMALL
GASTEIGER

@<TRIPOS>ATOM
      1 C         142.6718  141.7364  164.1889 C.ar    1  UNL1        0.0681
      2 C         141.8395  141.2903  163.0235 C.ar    1  UNL1        0.0208
      3 C         142.1117  141.8383  161.6540 C.ar    1  UNL1        0.0384
      4 C         143.2162  142.8325  161.4500 C.ar    1  UNL1        0.1386
      5 C         144.0484  143.2787  162.6154 C.ar    1  UNL1        0.0384
      6 C         143.7762  142.7306  163.9849 C.ar    1  UNL1        0.0208
      7 C         143.9745  139.1811  165.0681 C.3     1  UNL1        0.0723
      8 C         143.0509  139.9107  165.9980 C.ar    1  UNL1        0.1268
      9 N         142.7787  139.3625  167.3675 N.ar    1  UNL1       -0.2318
     10 C         141.8551  140.0921  168.2974 C.ar    1  UNL1        0.0872
     11 C         141.5829  139.5440  169.6669 C.ar    1  UNL1        0.0193
     12 C         140.6593  140.2736  170.5967 C.ar    1  UNL1        0.0015
     13 C         140.0079  141.5513  170.1571 C.ar    1  UNL1        0.0003
     14 C         140.2801  142.0994  168.7877 C.ar    1  UNL1        0.0063
     15 C         141.2037  141.3698  167.8578 C.ar    1  UNL1        0.0742
     16 C         141.4759  141.9179  166.4883 C.ar    1  UNL1        0.2669
     17 O         140.8246  143.1956  166.0487 O.2     1  UNL1       -0.2665
     18 N         142.3995  141.1883  165.5585 N.ar    1  UNL1       -0.2626
     19 O         143.4884  143.3806  160.0804 O.3     1  UNL1       -0.4754
     20 C         142.3728  143.9814  159.2777 C.3     1  UNL1        0.2068
     21 C         141.3261  144.8154  159.9551 C.3     1  UNL1        0.0646
     22 C         139.8803  144.4270  159.8600 C.3     1  UNL1        0.0759
     23 N         139.1441  143.9713  161.0848 N.3     1  UNL1       -0.2726
     24 C         138.3932  142.6812  161.2333 C.3     1  UNL1        0.0721
     25 C         137.8145  142.6382  162.6164 C.3     1  UNL1        0.0187
     26 C         138.2076  143.9017  163.3229 C.3     1  UNL1        0.0174
     27 C         137.8430  144.2757  164.7290 C.3     1  UNL1        0.0015
     28 C         139.0293  144.7256  162.3763 C.3     1  UNL1        0.0721
@<TRIPOS>BOND
     1     7     8    1
     2     8     9   ar
     3     9    10   ar
     4    10    11   ar
     5    11    12   ar
     6    12    13   ar
     7    13    14   ar
     8    14    15   ar
     9    15    16   ar
    10    16    17    2
    11    16    18   ar
    12    18     1    1
    13     1     2   ar
    14     2     3   ar
    15     3     4   ar
    16     4    19    1
    17    19    20    1
    18    20    21    1
    19    21    22    1
    20    22    23    1
    21    23    24    1
    22    24    25    1
    23    25    26    1
    24    26    27    1
    25    26    28    1
    26     4     5   ar
    27     5     6   ar
    28    18     8   ar
    29     6     1   ar
    30    15    10   ar
    31    28    23    1
@<TRIPOS>MOLECULE
*****
 28 31 0 0 0
SMALL
GASTEIGER

@<TRIPOS>ATOM
      1 C         141.3213  140.0020  164.1086 C.ar    1  UNL1        0.0681
      2 C         140.5631  140.5422  162.9325 C.ar    1  UNL1        0.0208
      3 C         141.1153  140.3832  161.5470 C.ar    1  UNL1        0.0384
      4 C         142.4257  139.6841  161.3375 C.ar    1  UNL1        0.1386
      5 C         143.1840  139.1439  162.5137 C.ar    1  UNL1        0.0384
      6 C         142.6318  139.3029  163.8992 C.ar    1  UNL1        0.0208
      7 C         139.4959  137.9100  165.2450 C.3     1  UNL1        0.0723
      8 C         139.8564  139.1151  166.0624 C.ar    1  UNL1        0.1268
      9 N         139.3041  139.2740  167.4479 N.ar    1  UNL1       -0.2318
     10 C         139.6645  140.4790  168.2653 C.ar    1  UNL1        0.0872
     11 C         139.1123  140.6380  169.6508 C.ar    1  UNL1        0.0193
     12 C         139.4727  141.8429  170.4682 C.ar    1  UNL1        0.0015
     13 C         140.3855  142.8890  169.9000 C.ar    1  UNL1        0.0003
     14 C         140.9377  142.7300  168.5145 C.ar    1  UNL1        0.0063
     15 C         140.5773  141.5250  167.6971 C.ar    1  UNL1        0.0742
     16 C         141.1295  141.3660  166.3116 C.ar    1  UNL1        0.2669
     17 O         142.0422  142.4120  165.7434 O.2     1  UNL1       -0.2665
     18 N         140.7691  140.1611  165.4942 N.ar    1  UNL1       -0.2626
     19 O         142.9780  139.5251  159.9520 O.3     1  UNL1       -0.4754
     20 C         142.6549  140.5391  158.8949 C.3     1  UNL1        0.2068
     21 C         143.7538  141.3442  158.2670 C.3     1  UNL1        0.0646
     22 C         144.2458  142.5926  158.9373 C.3     1  UNL1        0.0759
     23 N         144.1018  142.7536  160.4216 N.3     1  UNL1       -0.2726
     24 C         142.9985  143.4862  161.1261 C.3     1  UNL1        0.0721
     25 C         143.2505  143.3957  162.6020 C.3     1  UNL1        0.0187
     26 C         144.5095  142.6071  162.8098 C.3     1  UNL1        0.0174
     27 C         145.1330  142.2739  164.1327 C.3     1  UNL1        0.0015
     28 C         145.0356  142.2103  161.4622 C.3     1  UNL1        0.0721
@<TRIPOS>BOND
     1     7     8    1
     2     8     9   ar
     3     9    10   ar
     4    10    11   ar
     5    11    12   ar
     6    12    13   ar
     7    13    14   ar
     8    14    15   ar
     9    15    16   ar
    10    16    17    2
    11    16    18   ar
    12    18     1    1
    13     1     2   ar
    14     2     3   ar
    15     3     4   ar
    16     4    19    1
    17    19    20    1
    18    20    21    1
    19    21    22    1
    20    22    23    1
    21    23    24    1
    22    24    25    1
    23    25    26    1
    24    26    27    1
    25    26    28    1
    26     4     5   ar
    27     5     6   ar
    28    18     8   ar
    29     6     1   ar
    30    15    10   ar
    31    28    23    1
