@<TRIPOS>MOLECULE
*****
 38 41 0 0 0
SMALL
GASTEIGER

@<TRIPOS>ATOM
      1 C         141.7340  142.7761  162.8212 C.3     1  UNL1        0.0791
      2 C         142.0402  142.5419  164.2708 C.ar    1  UNL1        0.0374
      3 C         140.9672  142.0439  165.1931 C.ar    1  UNL1        0.0023
      4 C         141.2734  141.8096  166.6428 C.ar    1  UNL1        0.0181
      5 C         140.2004  141.3117  167.5650 C.ar    1  UNL1        0.0082
      6 C         140.5067  141.0775  169.0146 C.ar    1  UNL1        0.0347
      7 BR        139.4336  140.5794  169.9370 Br      1  UNL1       -0.0490
      8 C         141.8859  141.3413  169.5419 C.ar    1  UNL1        0.0082
      9 C         142.9589  141.8393  168.6196 C.ar    1  UNL1        0.0197
     10 C         142.6527  142.0734  167.1701 C.ar    1  UNL1        0.0844
     11 N         143.7257  142.5715  166.2477 N.ar    1  UNL1       -0.2119
     12 C         143.4195  142.8057  164.7981 C.ar    1  UNL1        0.2211
     13 O         144.4925  143.3037  163.8758 O.3     1  UNL1       -0.4563
     14 C         145.3522  142.3273  163.1290 C.3     1  UNL1        0.2542
     15 C         141.9762  139.3692  159.8913 C.ar    1  UNL1        0.1067
     16 C         141.3075  139.1703  161.2193 C.ar    1  UNL1        0.0252
     17 C         141.2268  140.3059  162.1959 C.ar    1  UNL1       -0.0003
     18 C         141.8147  141.6404  161.8446 C.ar    1  UNL1        0.0035
     19 C         142.4834  141.8393  160.5167 C.ar    1  UNL1        0.0955
     20 N         142.5641  140.7037  159.5400 N.ar    1  UNL1       -0.2380
     21 S         142.0569  138.2335  158.9147 S.3     1  UNL1       -0.0950
     22 C         139.8723  138.0030  157.5276 C.3     1  UNL1        0.0130
     23 C         141.3364  138.3205  157.6020 C.3     1  UNL1        0.0637
     24 C         141.3470  144.1459  162.3482 C.3     1  UNL1        0.1159
     25 O         142.6608  144.2708  161.6351 O.3     1  UNL1       -0.3820
     26 H         142.8231  143.4692  161.1137 H       1  UNL1        0.2107
     27 C         140.0333  144.0211  163.0613 C.ar    1  UNL1        0.0046
     28 C         138.9877  143.0765  162.5471 C.ar    1  UNL1       -0.0019
     29 C         137.6739  142.9516  163.2602 C.ar    1  UNL1        0.0021
     30 C         137.4058  143.7713  164.4874 C.ar    1  UNL1        0.0296
     31 C         138.4515  144.7158  165.0016 C.ar    1  UNL1        0.1399
     32 F         138.1834  145.5356  166.2290 F       1  UNL1       -0.2042
     33 C         139.7652  144.8407  164.2885 C.ar    1  UNL1        0.0276
     34 C         140.9601  145.5158  161.8752 C.3     1  UNL1        0.0491
     35 C         140.1256  145.6745  160.6390 C.3     1  UNL1        0.0750
     36 N         140.4897  144.9315  159.3878 N.3     1  UNL1       -0.2702
     37 C         141.6092  145.4262  158.5207 C.3     1  UNL1        0.0897
     38 C         139.7342  143.6939  159.0038 C.3     1  UNL1        0.0897
@<TRIPOS>BOND
     1    22    23    1
     2    23    21    1
     3    21    15    1
     4    15    16   ar
     5    16    17   ar
     6    17    18   ar
     7     1    18    1
     8     1     2    1
     9     2     3   ar
    10     3     4   ar
    11     4     5   ar
    12     5     6   ar
    13     6     7    1
    14     6     8   ar
    15     8     9   ar
    16     9    10   ar
    17    10    11   ar
    18    11    12   ar
    19    12    13    1
    20    13    14    1
    21     1    24    1
    22    24    25    1
    23    24    34    1
    24    34    35    1
    25    35    36    1
    26    36    37    1
    27    36    38    1
    28    24    27    1
    29    27    28   ar
    30    28    29   ar
    31    29    30   ar
    32    30    31   ar
    33    31    32    1
    34    31    33   ar
    35    18    19   ar
    36    19    20   ar
    37    20    15   ar
    38    12     2   ar
    39    33    27   ar
    40    10     4   ar
    41    25    26    1
@<TRIPOS>MOLECULE
*****
 38 41 0 0 0
SMALL
GASTEIGER

@<TRIPOS>ATOM
      1 C         142.0138  141.4326  162.7158 C.3     1  UNL1        0.0791
      2 C         141.6092  141.7714  164.1200 C.ar    1  UNL1        0.0374
      3 C         142.6385  141.8009  165.2107 C.ar    1  UNL1        0.0023
      4 C         142.2339  142.1398  166.6148 C.ar    1  UNL1        0.0181
      5 C         143.2631  142.1693  167.7055 C.ar    1  UNL1        0.0082
      6 C         142.8585  142.5081  169.1096 C.ar    1  UNL1        0.0347
      7 BR        143.8878  142.5376  170.2004 Br      1  UNL1       -0.0490
      8 C         141.4245  142.8174  169.4229 C.ar    1  UNL1        0.0082
      9 C         140.3953  142.7879  168.3322 C.ar    1  UNL1        0.0197
     10 C         140.7999  142.4491  166.9282 C.ar    1  UNL1        0.0844
     11 N         139.7706  142.4196  165.8374 N.ar    1  UNL1       -0.2119
     12 C         140.1753  142.0807  164.4333 C.ar    1  UNL1        0.2211
     13 O         139.1460  142.0512  163.3425 O.3     1  UNL1       -0.4563
     14 C         138.4261  143.3093  162.9565 C.3     1  UNL1        0.2542
     15 C         141.1855  144.3303  159.3742 C.ar    1  UNL1        0.1067
     16 C         140.8191  142.8838  159.2207 C.ar    1  UNL1        0.0252
     17 C         141.0952  141.9179  160.3346 C.ar    1  UNL1       -0.0003
     18 C         141.7377  142.3985  161.6020 C.ar    1  UNL1        0.0035
     19 C         142.1042  143.8449  161.7555 C.ar    1  UNL1        0.0955
     20 N         141.8280  144.8108  160.6415 N.ar    1  UNL1       -0.2380
     21 S         140.9094  145.2962  158.2603 S.3     1  UNL1       -0.0950
     22 C         142.1416  145.3919  155.9750 C.3     1  UNL1        0.0130
     23 C         142.0371  145.8061  157.4129 C.3     1  UNL1        0.0637
     24 C         142.6946  140.1278  162.4257 C.3     1  UNL1        0.1159
     25 O         143.9317  140.8662  162.0079 O.3     1  UNL1       -0.3820
     26 H         144.1517  141.5329  162.6772 H       1  UNL1        0.2107
     27 C         141.4575  139.3895  162.8434 C.ar    1  UNL1        0.0046
     28 C         141.3937  138.7357  164.1919 C.ar    1  UNL1       -0.0019
     29 C         140.1566  137.9973  164.6096 C.ar    1  UNL1        0.0021
     30 C         138.9834  137.9128  163.6788 C.ar    1  UNL1        0.0296
     31 C         139.0472  138.5666  162.3304 C.ar    1  UNL1        0.1399
     32 F         137.8739  138.4821  161.3995 F       1  UNL1       -0.2042
     33 C         140.2843  139.3050  161.9126 C.ar    1  UNL1        0.0276
     34 C         143.3753  138.8231  162.1355 C.3     1  UNL1        0.0491
     35 C         144.1382  138.6433  160.8566 C.3     1  UNL1        0.0750
     36 N         143.4730  138.9212  159.5411 N.3     1  UNL1       -0.2702
     37 C         143.8759  140.1206  158.7356 C.3     1  UNL1        0.0897
     38 C         142.4050  137.9996  159.0313 C.3     1  UNL1        0.0897
@<TRIPOS>BOND
     1    22    23    1
     2    23    21    1
     3    21    15    1
     4    15    16   ar
     5    16    17   ar
     6    17    18   ar
     7     1    18    1
     8     1     2    1
     9     2     3   ar
    10     3     4   ar
    11     4     5   ar
    12     5     6   ar
    13     6     7    1
    14     6     8   ar
    15     8     9   ar
    16     9    10   ar
    17    10    11   ar
    18    11    12   ar
    19    12    13    1
    20    13    14    1
    21     1    24    1
    22    24    25    1
    23    24    34    1
    24    34    35    1
    25    35    36    1
    26    36    37    1
    27    36    38    1
    28    24    27    1
    29    27    28   ar
    30    28    29   ar
    31    29    30   ar
    32    30    31   ar
    33    31    32    1
    34    31    33   ar
    35    18    19   ar
    36    19    20   ar
    37    20    15   ar
    38    12     2   ar
    39    33    27   ar
    40    10     4   ar
    41    25    26    1
@<TRIPOS>MOLECULE
*****
 38 41 0 0 0
SMALL
GASTEIGER

@<TRIPOS>ATOM
      1 C         140.6335  141.0562  164.3177 C.3     1  UNL1        0.0791
      2 C         140.5312  142.1563  163.3031 C.ar    1  UNL1        0.0374
      3 C         141.2854  142.0569  162.0104 C.ar    1  UNL1        0.0023
      4 C         141.1830  143.1571  160.9958 C.ar    1  UNL1        0.0181
      5 C         141.9372  143.0576  159.7030 C.ar    1  UNL1        0.0082
      6 C         141.8348  144.1577  158.6886 C.ar    1  UNL1        0.0347
      7 BR        142.5890  144.0583  157.3957 Br      1  UNL1       -0.0490
      8 C         140.9783  145.3573  158.9668 C.ar    1  UNL1        0.0082
      9 C         140.2241  145.4567  160.2596 C.ar    1  UNL1        0.0197
     10 C         140.3265  144.3566  161.2741 C.ar    1  UNL1        0.0844
     11 N         139.5723  144.4560  162.5670 N.ar    1  UNL1       -0.2119
     12 C         139.6747  143.3559  163.5814 C.ar    1  UNL1        0.2211
     13 O         138.9205  143.4553  164.8743 O.3     1  UNL1       -0.4563
     14 C         138.6193  144.8006  165.4653 C.3     1  UNL1        0.2542
     15 C         141.3219  142.0497  168.6523 C.ar    1  UNL1        0.1067
     16 C         142.3146  142.4864  167.6160 C.ar    1  UNL1        0.0252
     17 C         142.0851  142.1552  166.1711 C.ar    1  UNL1       -0.0003
     18 C         140.8630  141.3874  165.7626 C.ar    1  UNL1        0.0035
     19 C         139.8704  140.9507  166.7989 C.ar    1  UNL1        0.0955
     20 N         140.0998  141.2819  168.2438 N.ar    1  UNL1       -0.2380
     21 S         141.5513  142.3809  170.0972 S.3     1  UNL1       -0.0950
     22 C         142.7965  140.1583  170.6068 C.3     1  UNL1        0.0130
     23 C         141.9360  141.2993  171.0626 C.3     1  UNL1        0.0637
     24 C         140.5064  139.6249  163.8874 C.3     1  UNL1        0.1159
     25 O         139.0748  139.8656  163.5097 O.3     1  UNL1       -0.3820
     26 H         139.0131  140.6713  162.9731 H       1  UNL1        0.2107
     27 C         141.9380  139.3842  164.2650 C.ar    1  UNL1        0.0046
     28 C         143.0416  139.9199  163.4019 C.ar    1  UNL1       -0.0019
     29 C         144.4732  139.6792  163.7795 C.ar    1  UNL1        0.0021
     30 C         144.8012  138.9028  165.0203 C.ar    1  UNL1        0.0296
     31 C         143.6976  138.3671  165.8834 C.ar    1  UNL1        0.1399
     32 F         144.0255  137.5906  167.1243 F       1  UNL1       -0.2042
     33 C         142.2660  138.6078  165.5058 C.ar    1  UNL1        0.0276
     34 C         140.3793  138.1936  163.4570 C.3     1  UNL1        0.0491
     35 C         139.6325  137.8513  162.2020 C.3     1  UNL1        0.0750
     36 N         140.0238  138.4849  160.8999 N.3     1  UNL1       -0.2702
     37 C         141.4483  138.4237  160.4342 C.3     1  UNL1        0.0897
     38 C         138.9906  139.1797  160.0635 C.3     1  UNL1        0.0897
@<TRIPOS>BOND
     1    22    23    1
     2    23    21    1
     3    21    15    1
     4    15    16   ar
     5    16    17   ar
     6    17    18   ar
     7     1    18    1
     8     1     2    1
     9     2     3   ar
    10     3     4   ar
    11     4     5   ar
    12     5     6   ar
    13     6     7    1
    14     6     8   ar
    15     8     9   ar
    16     9    10   ar
    17    10    11   ar
    18    11    12   ar
    19    12    13    1
    20    13    14    1
    21     1    24    1
    22    24    25    1
    23    24    34    1
    24    34    35    1
    25    35    36    1
    26    36    37    1
    27    36    38    1
    28    24    27    1
    29    27    28   ar
    30    28    29   ar
    31    29    30   ar
    32    30    31   ar
    33    31    32    1
    34    31    33   ar
    35    18    19   ar
    36    19    20   ar
    37    20    15   ar
    38    12     2   ar
    39    33    27   ar
    40    10     4   ar
    41    25    26    1
@<TRIPOS>MOLECULE
*****
 38 41 0 0 0
SMALL
GASTEIGER

@<TRIPOS>ATOM
      1 C         141.7185  141.9031  163.9544 C.3     1  UNL1        0.0791
      2 C         142.0899  140.7779  163.0345 C.ar    1  UNL1        0.0374
      3 C         141.4868  140.7000  161.6634 C.ar    1  UNL1        0.0023
      4 C         141.8582  139.5748  160.7434 C.ar    1  UNL1        0.0181
      5 C         141.2551  139.4969  159.3723 C.ar    1  UNL1        0.0082
      6 C         141.6265  138.3718  158.4525 C.ar    1  UNL1        0.0347
      7 BR        141.0234  138.2938  157.0812 Br      1  UNL1       -0.0490
      8 C         142.6010  137.3246  158.9038 C.ar    1  UNL1        0.0082
      9 C         143.2041  137.4025  160.2750 C.ar    1  UNL1        0.0197
     10 C         142.8327  138.5276  161.1948 C.ar    1  UNL1        0.0844
     11 N         143.4358  138.6056  162.5660 N.ar    1  UNL1       -0.2119
     12 C         143.0644  139.7307  163.4859 C.ar    1  UNL1        0.2211
     13 O         143.6675  139.8087  164.8571 O.3     1  UNL1       -0.4563
     14 C         143.4820  138.6766  165.8235 C.3     1  UNL1        0.2542
     15 C         140.3499  141.0212  168.1496 C.ar    1  UNL1        0.1067
     16 C         139.6741  140.3594  166.9854 C.ar    1  UNL1        0.0252
     17 C         140.1303  140.6533  165.5870 C.ar    1  UNL1       -0.0003
     18 C         141.2623  141.6091  165.3528 C.ar    1  UNL1        0.0035
     19 C         141.9382  142.2710  166.5169 C.ar    1  UNL1        0.0955
     20 N         141.4820  141.9770  167.9153 N.ar    1  UNL1       -0.2380
     21 S         139.8937  140.7273  169.5479 S.3     1  UNL1       -0.0950
     22 C         141.9587  139.2397  170.0705 C.3     1  UNL1        0.0130
     23 C         140.8501  140.1346  170.5399 C.3     1  UNL1        0.0637
     24 C         141.8034  143.3222  163.4759 C.3     1  UNL1        0.1159
     25 O         143.2648  143.1390  163.1920 O.3     1  UNL1       -0.3820
     26 H         143.3967  142.3183  162.6921 H       1  UNL1        0.2107
     27 C         140.3419  143.5053  163.7598 C.ar    1  UNL1        0.0046
     28 C         139.3215  142.7649  162.9472 C.ar    1  UNL1       -0.0019
     29 C         137.8600  142.9480  163.2311 C.ar    1  UNL1        0.0021
     30 C         137.4190  143.8715  164.3277 C.ar    1  UNL1        0.0296
     31 C         138.4394  144.6120  165.1403 C.ar    1  UNL1        0.1399
     32 F         137.9984  145.5356  166.2370 F       1  UNL1       -0.2042
     33 C         139.9009  144.4288  164.8564 C.ar    1  UNL1        0.0276
     34 C         141.8882  144.7413  162.9974 C.3     1  UNL1        0.0491
     35 C         141.8521  145.0407  161.5281 C.3     1  UNL1        0.0750
     36 N         140.5909  145.5524  160.8977 N.3     1  UNL1       -0.2702
     37 C         139.6292  146.3739  161.7040 C.3     1  UNL1        0.0897
     38 C         140.2914  145.2426  159.4609 C.3     1  UNL1        0.0897
@<TRIPOS>BOND
     1    22    23    1
     2    23    21    1
     3    21    15    1
     4    15    16   ar
     5    16    17   ar
     6    17    18   ar
     7     1    18    1
     8     1     2    1
     9     2     3   ar
    10     3     4   ar
    11     4     5   ar
    12     5     6   ar
    13     6     7    1
    14     6     8   ar
    15     8     9   ar
    16     9    10   ar
    17    10    11   ar
    18    11    12   ar
    19    12    13    1
    20    13    14    1
    21     1    24    1
    22    24    25    1
    23    24    34    1
    24    34    35    1
    25    35    36    1
    26    36    37    1
    27    36    38    1
    28    24    27    1
    29    27    28   ar
    30    28    29   ar
    31    29    30   ar
    32    30    31   ar
    33    31    32    1
    34    31    33   ar
    35    18    19   ar
    36    19    20   ar
    37    20    15   ar
    38    12     2   ar
    39    33    27   ar
    40    10     4   ar
    41    25    26    1
@<TRIPOS>MOLECULE
*****
 38 41 0 0 0
SMALL
GASTEIGER

@<TRIPOS>ATOM
      1 C         142.2664  141.1423  163.1219 C.3     1  UNL1        0.0791
      2 C         142.0359  142.1510  162.0358 C.ar    1  UNL1        0.0374
      3 C         141.0223  141.8804  160.9637 C.ar    1  UNL1        0.0023
      4 C         140.7919  142.8891  159.8776 C.ar    1  UNL1        0.0181
      5 C         139.7782  142.6185  158.8056 C.ar    1  UNL1        0.0082
      6 C         139.5478  143.6272  157.7196 C.ar    1  UNL1        0.0347
      7 BR        138.5341  143.3567  156.6475 Br      1  UNL1       -0.0490
      8 C         140.3310  144.9064  157.7056 C.ar    1  UNL1        0.0082
      9 C         141.3447  145.1769  158.7776 C.ar    1  UNL1        0.0197
     10 C         141.5751  144.1683  159.8636 C.ar    1  UNL1        0.0844
     11 N         142.5888  144.4388  160.9358 N.ar    1  UNL1       -0.2119
     12 C         142.8192  143.4302  162.0218 C.ar    1  UNL1        0.2211
     13 O         143.8329  143.7007  163.0939 O.3     1  UNL1       -0.4563
     14 C         143.6834  144.9003  163.9819 C.3     1  UNL1        0.2542
     15 C         141.0150  142.0587  167.3461 C.ar    1  UNL1        0.1067
     16 C         140.0073  142.1148  166.2364 C.ar    1  UNL1        0.0252
     17 C         140.4244  141.8093  164.8283 C.ar    1  UNL1       -0.0003
     18 C         141.8493  141.4478  164.5299 C.ar    1  UNL1        0.0035
     19 C         142.8570  141.3916  165.6395 C.ar    1  UNL1        0.0955
     20 N         142.4398  141.6971  167.0477 N.ar    1  UNL1       -0.2380
     21 S         140.5978  142.3642  168.7541 S.3     1  UNL1       -0.0950
     22 C         139.1179  140.5204  169.8312 C.3     1  UNL1        0.0130
     23 C         140.4254  141.2502  169.7437 C.3     1  UNL1        0.0637
     24 C         142.9140  139.8282  162.7998 C.3     1  UNL1        0.1159
     25 O         144.1912  140.5397  162.4646 O.3     1  UNL1       -0.3820
     26 H         144.4063  141.1683  163.1714 H       1  UNL1        0.2107
     27 C         141.6368  139.1166  163.1351 C.ar    1  UNL1        0.0046
     28 C         141.5212  138.3472  164.4175 C.ar    1  UNL1       -0.0019
     29 C         140.2440  137.6356  164.7527 C.ar    1  UNL1        0.0021
     30 C         139.0824  137.6935  163.8056 C.ar    1  UNL1        0.0296
     31 C         139.1979  138.4628  162.5231 C.ar    1  UNL1        0.1399
     32 F         138.0362  138.5207  161.5759 F       1  UNL1       -0.2042
     33 C         140.4751  139.1744  162.1879 C.ar    1  UNL1        0.0276
     34 C         143.5616  138.5141  162.4778 C.3     1  UNL1        0.0491
     35 C         144.2410  138.3169  161.1551 C.3     1  UNL1        0.0750
     36 N         143.5471  138.7204  159.8880 N.3     1  UNL1       -0.2702
     37 C         143.8619  140.0399  159.2479 C.3     1  UNL1        0.0897
     38 C         142.5383  137.8044  159.2609 C.3     1  UNL1        0.0897
@<TRIPOS>BOND
     1    22    23    1
     2    23    21    1
     3    21    15    1
     4    15    16   ar
     5    16    17   ar
     6    17    18   ar
     7     1    18    1
     8     1     2    1
     9     2     3   ar
    10     3     4   ar
    11     4     5   ar
    12     5     6   ar
    13     6     7    1
    14     6     8   ar
    15     8     9   ar
    16     9    10   ar
    17    10    11   ar
    18    11    12   ar
    19    12    13    1
    20    13    14    1
    21     1    24    1
    22    24    25    1
    23    24    34    1
    24    34    35    1
    25    35    36    1
    26    36    37    1
    27    36    38    1
    28    24    27    1
    29    27    28   ar
    30    28    29   ar
    31    29    30   ar
    32    30    31   ar
    33    31    32    1
    34    31    33   ar
    35    18    19   ar
    36    19    20   ar
    37    20    15   ar
    38    12     2   ar
    39    33    27   ar
    40    10     4   ar
    41    25    26    1
@<TRIPOS>MOLECULE
*****
 38 41 0 0 0
SMALL
GASTEIGER

@<TRIPOS>ATOM
      1 C         142.1677  141.0162  163.6157 C.3     1  UNL1        0.0791
      2 C         142.0592  141.2238  165.0974 C.ar    1  UNL1        0.0374
      3 C         140.8807  140.6771  165.8470 C.ar    1  UNL1        0.0023
      4 C         140.7722  140.8847  167.3286 C.ar    1  UNL1        0.0181
      5 C         139.5936  140.3380  168.0783 C.ar    1  UNL1        0.0082
      6 C         139.4851  140.5456  169.5598 C.ar    1  UNL1        0.0347
      7 BR        138.3065  139.9989  170.3095 Br      1  UNL1       -0.0490
      8 C         140.5553  141.3000  170.2918 C.ar    1  UNL1        0.0082
      9 C         141.7338  141.8467  169.5421 C.ar    1  UNL1        0.0197
     10 C         141.8423  141.6390  168.0606 C.ar    1  UNL1        0.0844
     11 N         143.0209  142.1858  167.3109 N.ar    1  UNL1       -0.2119
     12 C         143.1294  141.9781  165.8293 C.ar    1  UNL1        0.2211
     13 O         144.3080  142.5249  165.0796 O.3     1  UNL1       -0.4563
     14 C         144.3146  143.9571  164.6339 C.3     1  UNL1        0.2542
     15 C         140.8706  144.2668  160.7872 C.ar    1  UNL1        0.1067
     16 C         139.9699  143.8468  161.9109 C.ar    1  UNL1        0.0252
     17 C         140.4023  142.7633  162.8537 C.ar    1  UNL1       -0.0003
     18 C         141.7354  142.0997  162.6729 C.ar    1  UNL1        0.0035
     19 C         142.6360  142.5196  161.5493 C.ar    1  UNL1        0.0955
     20 N         142.2036  143.6032  160.6065 N.ar    1  UNL1       -0.2380
     21 S         140.4382  145.3504  159.8444 S.3     1  UNL1       -0.0950
     22 C         140.4665  146.0703  157.3482 C.3     1  UNL1        0.0130
     23 C         140.1963  145.0338  158.3983 C.3     1  UNL1        0.0637
     24 C         142.7086  139.7250  163.0770 C.3     1  UNL1        0.1159
     25 O         144.1072  140.2398  163.2473 O.3     1  UNL1       -0.3820
     26 H         144.2063  140.6192  164.1345 H       1  UNL1        0.2107
     27 C         141.3101  139.2101  162.9067 C.ar    1  UNL1        0.0046
     28 C         140.5526  139.5001  161.6449 C.ar    1  UNL1       -0.0019
     29 C         139.1541  138.9853  161.4746 C.ar    1  UNL1        0.0021
     30 C         138.5130  138.1805  162.5660 C.ar    1  UNL1        0.0296
     31 C         139.2704  137.8906  163.8278 C.ar    1  UNL1        0.1399
     32 F         138.6294  137.0858  164.9193 F       1  UNL1       -0.2042
     33 C         140.6690  138.4054  163.9981 C.ar    1  UNL1        0.0276
     34 C         143.2495  138.4338  162.5382 C.3     1  UNL1        0.0491
     35 C         144.1606  138.4413  161.3467 C.3     1  UNL1        0.0750
     36 N         143.6013  138.6859  159.9765 N.3     1  UNL1       -0.2702
     37 C         143.8467  139.9963  159.2892 C.3     1  UNL1        0.0897
     38 C         142.7967  137.6199  159.2936 C.3     1  UNL1        0.0897
@<TRIPOS>BOND
     1    22    23    1
     2    23    21    1
     3    21    15    1
     4    15    16   ar
     5    16    17   ar
     6    17    18   ar
     7     1    18    1
     8     1     2    1
     9     2     3   ar
    10     3     4   ar
    11     4     5   ar
    12     5     6   ar
    13     6     7    1
    14     6     8   ar
    15     8     9   ar
    16     9    10   ar
    17    10    11   ar
    18    11    12   ar
    19    12    13    1
    20    13    14    1
    21     1    24    1
    22    24    25    1
    23    24    34    1
    24    34    35    1
    25    35    36    1
    26    36    37    1
    27    36    38    1
    28    24    27    1
    29    27    28   ar
    30    28    29   ar
    31    29    30   ar
    32    30    31   ar
    33    31    32    1
    34    31    33   ar
    35    18    19   ar
    36    19    20   ar
    37    20    15   ar
    38    12     2   ar
    39    33    27   ar
    40    10     4   ar
    41    25    26    1
@<TRIPOS>MOLECULE
*****
 38 41 0 0 0
SMALL
GASTEIGER

@<TRIPOS>ATOM
      1 C         141.1072  140.6769  162.4859 C.3     1  UNL1        0.0791
      2 C         140.6864  140.6332  163.9251 C.ar    1  UNL1        0.0374
      3 C         141.4364  141.4307  164.9504 C.ar    1  UNL1        0.0023
      4 C         141.0156  141.3870  166.3895 C.ar    1  UNL1        0.0181
      5 C         141.7657  142.1845  167.4148 C.ar    1  UNL1        0.0082
      6 C         141.3448  142.1408  168.8539 C.ar    1  UNL1        0.0347
      7 BR        142.0949  142.9384  169.8793 Br      1  UNL1       -0.0490
      8 C         140.1739  141.2995  169.2677 C.ar    1  UNL1        0.0082
      9 C         139.4239  140.5020  168.2424 C.ar    1  UNL1        0.0197
     10 C         139.8447  140.5457  166.8033 C.ar    1  UNL1        0.0844
     11 N         139.0946  139.7481  165.7779 N.ar    1  UNL1       -0.2119
     12 C         139.5155  139.7919  164.3389 C.ar    1  UNL1        0.2211
     13 O         138.7654  138.9943  163.3135 O.3     1  UNL1       -0.4563
     14 C         138.9115  137.5021  163.2701 C.3     1  UNL1        0.2542
     15 C         140.5104  144.4328  160.0803 C.ar    1  UNL1        0.1067
     16 C         141.8660  143.7944  160.1504 C.ar    1  UNL1        0.0252
     17 C         142.0649  142.5425  160.9523 C.ar    1  UNL1       -0.0003
     18 C         140.9083  141.9288  161.6841 C.ar    1  UNL1        0.0035
     19 C         139.5527  142.5671  161.6140 C.ar    1  UNL1        0.0955
     20 N         139.3537  143.8191  160.8121 N.ar    1  UNL1       -0.2380
     21 S         140.3115  145.6847  159.2785 S.3     1  UNL1       -0.0950
     22 C         139.8177  146.5398  156.8754 C.3     1  UNL1        0.0130
     23 C         140.6286  145.6947  157.8124 C.3     1  UNL1        0.0637
     24 C         141.7269  139.4686  161.8487 C.3     1  UNL1        0.1159
     25 O         140.5753  139.3828  160.8915 O.3     1  UNL1       -0.3820
     26 H         140.4091  140.2574  160.5063 H       1  UNL1        0.2107
     27 C         142.8785  139.5545  162.8060 C.ar    1  UNL1        0.0046
     28 C         142.9459  138.6275  163.9833 C.ar    1  UNL1       -0.0019
     29 C         144.0976  138.7133  164.9406 C.ar    1  UNL1        0.0021
     30 C         145.1818  139.7262  164.7206 C.ar    1  UNL1        0.0296
     31 C         145.1144  140.6532  163.5433 C.ar    1  UNL1        0.1399
     32 F         146.1987  141.6661  163.3232 F       1  UNL1       -0.2042
     33 C         143.9628  140.5673  162.5860 C.ar    1  UNL1        0.0276
     34 C         142.3466  138.2603  161.2115 C.3     1  UNL1        0.0491
     35 C         143.3068  138.4234  160.0708 C.3     1  UNL1        0.0750
     36 N         142.7904  138.6910  158.6882 N.3     1  UNL1       -0.2702
     37 C         142.3757  137.5492  157.8083 C.3     1  UNL1        0.0897
     38 C         142.6886  140.1006  158.1854 C.3     1  UNL1        0.0897
@<TRIPOS>BOND
     1    22    23    1
     2    23    21    1
     3    21    15    1
     4    15    16   ar
     5    16    17   ar
     6    17    18   ar
     7     1    18    1
     8     1     2    1
     9     2     3   ar
    10     3     4   ar
    11     4     5   ar
    12     5     6   ar
    13     6     7    1
    14     6     8   ar
    15     8     9   ar
    16     9    10   ar
    17    10    11   ar
    18    11    12   ar
    19    12    13    1
    20    13    14    1
    21     1    24    1
    22    24    25    1
    23    24    34    1
    24    34    35    1
    25    35    36    1
    26    36    37    1
    27    36    38    1
    28    24    27    1
    29    27    28   ar
    30    28    29   ar
    31    29    30   ar
    32    30    31   ar
    33    31    32    1
    34    31    33   ar
    35    18    19   ar
    36    19    20   ar
    37    20    15   ar
    38    12     2   ar
    39    33    27   ar
    40    10     4   ar
    41    25    26    1
@<TRIPOS>MOLECULE
*****
 38 41 0 0 0
SMALL
GASTEIGER

@<TRIPOS>ATOM
      1 C         140.3438  141.3958  162.5839 C.3     1  UNL1        0.0791
      2 C         140.3639  141.8398  164.0166 C.ar    1  UNL1        0.0374
      3 C         141.1593  141.0704  165.0291 C.ar    1  UNL1        0.0023
      4 C         141.1794  141.5143  166.4618 C.ar    1  UNL1        0.0181
      5 C         141.9748  140.7449  167.4744 C.ar    1  UNL1        0.0082
      6 C         141.9949  141.1889  168.9070 C.ar    1  UNL1        0.0347
      7 BR        142.7903  140.4194  169.9196 Br      1  UNL1       -0.0490
      8 C         141.2195  142.4023  169.3271 C.ar    1  UNL1        0.0082
      9 C         140.4241  143.1717  168.3145 C.ar    1  UNL1        0.0197
     10 C         140.4041  142.7277  166.8819 C.ar    1  UNL1        0.0844
     11 N         139.6086  143.4972  165.8693 N.ar    1  UNL1       -0.2119
     12 C         139.5885  143.0532  164.4367 C.ar    1  UNL1        0.2211
     13 O         138.7931  143.8226  163.4241 O.3     1  UNL1       -0.4563
     14 C         139.2274  145.1999  163.0184 C.3     1  UNL1        0.2542
     15 C         141.4507  144.2858  159.3170 C.ar    1  UNL1        0.1067
     16 C         140.1549  143.5335  159.2456 C.ar    1  UNL1        0.0252
     17 C         139.7860  142.5702  160.3345 C.ar    1  UNL1       -0.0003
     18 C         140.7127  142.3591  161.4950 C.ar    1  UNL1        0.0035
     19 C         142.0085  143.1114  161.5664 C.ar    1  UNL1        0.0955
     20 N         142.3775  144.0748  160.4774 N.ar    1  UNL1       -0.2380
     21 S         141.8197  145.2491  158.2281 S.3     1  UNL1       -0.0950
     22 C         139.9380  146.4336  156.8841 C.3     1  UNL1        0.0130
     23 C         140.9695  145.3504  156.9965 C.3     1  UNL1        0.0637
     24 C         139.9547  139.9885  162.2402 C.3     1  UNL1        0.1159
     25 O         138.5566  140.2600  162.7111 O.3     1  UNL1       -0.3820
     26 H         138.2409  141.0916  162.3241 H       1  UNL1        0.2107
     27 C         141.3527  139.7170  161.7693 C.ar    1  UNL1        0.0046
     28 C         141.6258  139.5129  160.3086 C.ar    1  UNL1       -0.0019
     29 C         143.0238  139.2414  159.8377 C.ar    1  UNL1        0.0021
     30 C         144.1488  139.1739  160.8276 C.ar    1  UNL1        0.0296
     31 C         143.8758  139.3780  162.2883 C.ar    1  UNL1        0.1399
     32 F         145.0008  139.3106  163.2782 F       1  UNL1       -0.2042
     33 C         142.4777  139.6495  162.7592 C.ar    1  UNL1        0.0276
     34 C         139.5656  138.5812  161.8966 C.3     1  UNL1        0.0491
     35 C         138.9555  137.6952  162.9419 C.3     1  UNL1        0.0750
     36 N         139.5184  137.6781  164.3321 N.3     1  UNL1       -0.2702
     37 C         138.7076  138.2106  165.4762 C.3     1  UNL1        0.0897
     38 C         140.8922  137.1285  164.5783 C.3     1  UNL1        0.0897
@<TRIPOS>BOND
     1    22    23    1
     2    23    21    1
     3    21    15    1
     4    15    16   ar
     5    16    17   ar
     6    17    18   ar
     7     1    18    1
     8     1     2    1
     9     2     3   ar
    10     3     4   ar
    11     4     5   ar
    12     5     6   ar
    13     6     7    1
    14     6     8   ar
    15     8     9   ar
    16     9    10   ar
    17    10    11   ar
    18    11    12   ar
    19    12    13    1
    20    13    14    1
    21     1    24    1
    22    24    25    1
    23    24    34    1
    24    34    35    1
    25    35    36    1
    26    36    37    1
    27    36    38    1
    28    24    27    1
    29    27    28   ar
    30    28    29   ar
    31    29    30   ar
    32    30    31   ar
    33    31    32    1
    34    31    33   ar
    35    18    19   ar
    36    19    20   ar
    37    20    15   ar
    38    12     2   ar
    39    33    27   ar
    40    10     4   ar
    41    25    26    1
@<TRIPOS>MOLECULE
*****
 38 41 0 0 0
SMALL
GASTEIGER

@<TRIPOS>ATOM
      1 C         141.5214  141.8626  162.3157 C.3     1  UNL1        0.0791
      2 C         141.1836  142.1593  163.7468 C.ar    1  UNL1        0.0374
      3 C         142.2315  142.0147  164.8103 C.ar    1  UNL1        0.0023
      4 C         141.8937  142.3114  166.2414 C.ar    1  UNL1        0.0181
      5 C         142.9415  142.1669  167.3048 C.ar    1  UNL1        0.0082
      6 C         142.6037  142.4635  168.7358 C.ar    1  UNL1        0.0347
      7 BR        143.6516  142.3190  169.7994 Br      1  UNL1       -0.0490
      8 C         141.2179  142.9046  169.1034 C.ar    1  UNL1        0.0082
      9 C         140.1700  143.0491  168.0399 C.ar    1  UNL1        0.0197
     10 C         140.5079  142.7525  166.6089 C.ar    1  UNL1        0.0844
     11 N         139.4600  142.8970  165.5454 N.ar    1  UNL1       -0.2119
     12 C         139.7979  142.6004  164.1144 C.ar    1  UNL1        0.2211
     13 O         138.7499  142.7449  163.0508 O.3     1  UNL1       -0.4563
     14 C         137.4196  142.0709  163.2122 C.3     1  UNL1        0.2542
     15 C         140.6441  144.9062  159.1193 C.ar    1  UNL1        0.1067
     16 C         140.0922  143.5162  159.0032 C.ar    1  UNL1        0.0252
     17 C         140.3847  142.5017  160.0687 C.ar    1  UNL1       -0.0003
     18 C         141.2290  142.8771  161.2503 C.ar    1  UNL1        0.0035
     19 C         141.7808  144.2670  161.3664 C.ar    1  UNL1        0.0955
     20 N         141.4884  145.2816  160.3009 N.ar    1  UNL1       -0.2380
     21 S         140.3516  145.9207  158.0539 S.3     1  UNL1       -0.0950
     22 C         142.1940  145.1728  156.3817 C.3     1  UNL1        0.0130
     23 C         140.8077  145.6815  156.6451 C.3     1  UNL1        0.0637
     24 C         142.1517  140.5515  161.9502 C.3     1  UNL1        0.1159
     25 O         143.4670  141.2418  161.7419 O.3     1  UNL1       -0.3820
     26 H         143.6536  141.8175  162.5000 H       1  UNL1        0.2107
     27 C         140.8364  139.8611  162.1584 C.ar    1  UNL1        0.0046
     28 C         139.8219  139.8313  161.0540 C.ar    1  UNL1       -0.0019
     29 C         138.5066  139.1409  161.2622 C.ar    1  UNL1        0.0021
     30 C         138.2058  138.4804  162.5749 C.ar    1  UNL1        0.0296
     31 C         139.2203  138.5102  163.6793 C.ar    1  UNL1        0.1399
     32 F         138.9195  137.8497  164.9921 F       1  UNL1       -0.2042
     33 C         140.5356  139.2006  163.4711 C.ar    1  UNL1        0.0276
     34 C         142.7820  139.2403  161.5846 C.3     1  UNL1        0.0491
     35 C         144.0065  138.7684  162.3111 C.3     1  UNL1        0.0750
     36 N         144.2556  139.2060  163.7241 N.3     1  UNL1       -0.2702
     37 C         145.3090  140.2330  164.0165 C.3     1  UNL1        0.0897
     38 C         143.4513  138.6165  164.8446 C.3     1  UNL1        0.0897
@<TRIPOS>BOND
     1    22    23    1
     2    23    21    1
     3    21    15    1
     4    15    16   ar
     5    16    17   ar
     6    17    18   ar
     7     1    18    1
     8     1     2    1
     9     2     3   ar
    10     3     4   ar
    11     4     5   ar
    12     5     6   ar
    13     6     7    1
    14     6     8   ar
    15     8     9   ar
    16     9    10   ar
    17    10    11   ar
    18    11    12   ar
    19    12    13    1
    20    13    14    1
    21     1    24    1
    22    24    25    1
    23    24    34    1
    24    34    35    1
    25    35    36    1
    26    36    37    1
    27    36    38    1
    28    24    27    1
    29    27    28   ar
    30    28    29   ar
    31    29    30   ar
    32    30    31   ar
    33    31    32    1
    34    31    33   ar
    35    18    19   ar
    36    19    20   ar
    37    20    15   ar
    38    12     2   ar
    39    33    27   ar
    40    10     4   ar
    41    25    26    1
