@<TRIPOS>MOLECULE
*****
 32 36 0 0 0
SMALL
GASTEIGER

@<TRIPOS>ATOM
      1 N         140.0935  138.2611  161.8559 N.3     1  UNL1       -0.2694
      2 C         140.0824  137.9541  163.3241 C.3     1  UNL1        0.0939
      3 C         141.3026  138.2199  164.1552 C.3     1  UNL1        0.1107
      4 N         142.5338  138.7926  163.5180 N.am    1  UNL1       -0.2764
      5 C         143.7539  139.0583  164.3490 C.2     1  UNL1        0.2301
      6 O         144.9853  139.6310  163.7118 O.2     1  UNL1       -0.2745
      7 C         142.5449  139.0995  162.0498 C.3     1  UNL1        0.1107
      8 C         141.3248  138.8338  161.2187 C.3     1  UNL1        0.0939
      9 C         138.8734  137.9953  161.0249 C.3     1  UNL1        0.0785
     10 C         137.7112  138.9424  161.0746 C.3     1  UNL1        0.0631
     11 O         138.9443  145.8738  162.1076 O.2     1  UNL1       -0.2448
     12 C         138.5038  144.6117  162.7880 C.2     1  UNL1        0.3429
     13 O         138.1160  144.4770  164.2307 O.3     1  UNL1       -0.4387
     14 C         137.7462  143.0447  164.4795 C.3     1  UNL1        0.2544
     15 C         137.9055  142.2942  163.1905 C.ar    1  UNL1        0.1085
     16 N         137.6847  140.8541  162.8337 N.ar    1  UNL1       -0.2500
     17 C         137.9321  140.3825  161.4315 C.ar    1  UNL1        0.0601
     18 C         138.4003  141.3510  160.3861 C.ar    1  UNL1        0.0150
     19 C         138.6211  142.7910  160.7429 C.ar    1  UNL1        0.0090
     20 C         138.3737  143.2627  162.1451 C.ar    1  UNL1        0.0928
     21 C         143.7428  138.7513  165.8172 C.3     1  UNL1        0.1116
     22 C         142.9810  139.6329  166.7620 C.ar    1  UNL1       -0.0130
     23 C         142.6009  141.0238  166.3485 C.ar    1  UNL1       -0.0022
     24 C         141.8391  141.9053  167.2932 C.ar    1  UNL1        0.0190
     25 C         141.4574  141.3960  168.6514 C.ar    1  UNL1        0.0862
     26 C         141.8376  140.0051  169.0650 C.ar    1  UNL1        0.0190
     27 C         142.5993  139.1236  168.1203 C.ar    1  UNL1       -0.0022
     28 N         140.6956  142.2776  169.5962 N.ar    1  UNL1       -0.1886
     29 C         140.5143  143.7608  169.4658 C.ar    1  UNL1        0.2258
     30 N         139.6880  144.2306  170.6263 N.ar    1  UNL1       -0.1045
     31 N         139.3586  143.0376  171.4739 N.ar    1  UNL1       -0.0222
     32 N         139.9814  141.8306  170.8372 N.ar    1  UNL1       -0.0385
@<TRIPOS>BOND
     1    11    12    2
     2    12    13    1
     3    13    14    1
     4    14    15    1
     5    15    16   ar
     6    16    17   ar
     7    17    10    1
     8    10     9    1
     9     9     1    1
    10     1     2    1
    11     2     3    1
    12     3     4    1
    13     4     5   am
    14     5     6    2
    15     5    21    1
    16    21    22    1
    17    22    23   ar
    18    23    24   ar
    19    24    25   ar
    20    25    28    1
    21    28    29   ar
    22    29    30   ar
    23    30    31   ar
    24    31    32   ar
    25    25    26   ar
    26    26    27   ar
    27     4     7    1
    28     7     8    1
    29    17    18   ar
    30    18    19   ar
    31    19    20   ar
    32    20    12    1
    33    20    15   ar
    34     8     1    1
    35    27    22   ar
    36    32    28   ar
@<TRIPOS>MOLECULE
*****
 32 36 0 0 0
SMALL
GASTEIGER

@<TRIPOS>ATOM
      1 N         138.5489  139.8966  159.8285 N.3     1  UNL1       -0.2694
      2 C         137.6540  139.8927  161.0323 C.3     1  UNL1        0.0939
      3 C         138.0549  139.1335  162.2623 C.3     1  UNL1        0.1107
      4 N         139.3506  138.3782  162.2886 N.am    1  UNL1       -0.2764
      5 C         139.7513  137.6191  163.5186 C.2     1  UNL1        0.2301
      6 O         141.0471  136.8637  163.5448 O.2     1  UNL1       -0.2745
      7 C         140.2454  138.3821  161.0847 C.3     1  UNL1        0.1107
      8 C         139.8446  139.1413  159.8547 C.3     1  UNL1        0.0939
      9 C         138.1481  140.6557  158.5984 C.3     1  UNL1        0.0785
     10 C         138.2855  142.1490  158.5606 C.3     1  UNL1        0.0631
     11 O         142.0117  145.5433  163.5832 O.2     1  UNL1       -0.2448
     12 C         140.6482  145.0230  163.2363 C.2     1  UNL1        0.3429
     13 O         139.4222  145.1218  164.0948 O.3     1  UNL1       -0.4387
     14 C         138.2877  144.4725  163.3591 C.3     1  UNL1        0.2544
     15 C         138.8126  143.9724  162.0459 C.ar    1  UNL1        0.1085
     16 N         138.1506  143.2512  160.9095 N.ar    1  UNL1       -0.2500
     17 C         138.9475  142.8702  159.6972 C.ar    1  UNL1        0.0601
     18 C         140.4064  143.2105  159.6213 C.ar    1  UNL1        0.0150
     19 C         141.0684  143.9317  160.7577 C.ar    1  UNL1        0.0090
     20 C         140.2715  144.3127  161.9701 C.ar    1  UNL1        0.0928
     21 C         138.8565  137.6152  164.7224 C.3     1  UNL1        0.1116
     22 C         139.1605  138.5119  165.8858 C.ar    1  UNL1       -0.0130
     23 C         140.4855  139.2102  165.9683 C.ar    1  UNL1       -0.0022
     24 C         140.7896  140.1069  167.1317 C.ar    1  UNL1        0.0190
     25 C         139.7687  140.3053  168.2126 C.ar    1  UNL1        0.0862
     26 C         138.4437  139.6070  168.1301 C.ar    1  UNL1        0.0190
     27 C         138.1396  138.7103  166.9667 C.ar    1  UNL1       -0.0022
     28 N         140.0727  141.2020  169.3760 N.ar    1  UNL1       -0.1886
     29 C         140.4598  142.6490  169.2964 C.ar    1  UNL1        0.2258
     30 N         140.6694  143.1504  170.6944 N.ar    1  UNL1       -0.1045
     31 N         140.4119  142.0132  171.6382 N.ar    1  UNL1       -0.0222
     32 N         140.0431  140.8091  170.8233 N.ar    1  UNL1       -0.0385
@<TRIPOS>BOND
     1    11    12    2
     2    12    13    1
     3    13    14    1
     4    14    15    1
     5    15    16   ar
     6    16    17   ar
     7    17    10    1
     8    10     9    1
     9     9     1    1
    10     1     2    1
    11     2     3    1
    12     3     4    1
    13     4     5   am
    14     5     6    2
    15     5    21    1
    16    21    22    1
    17    22    23   ar
    18    23    24   ar
    19    24    25   ar
    20    25    28    1
    21    28    29   ar
    22    29    30   ar
    23    30    31   ar
    24    31    32   ar
    25    25    26   ar
    26    26    27   ar
    27     4     7    1
    28     7     8    1
    29    17    18   ar
    30    18    19   ar
    31    19    20   ar
    32    20    12    1
    33    20    15   ar
    34     8     1    1
    35    27    22   ar
    36    32    28   ar
@<TRIPOS>MOLECULE
*****
 32 36 0 0 0
SMALL
GASTEIGER

@<TRIPOS>ATOM
      1 N         140.0311  141.9283  160.7054 N.3     1  UNL1       -0.2694
      2 C         139.0512  141.8168  161.8355 C.3     1  UNL1        0.0939
      3 C         138.9828  140.5573  162.6474 C.3     1  UNL1        0.1107
      4 N         139.8944  139.4094  162.3292 N.am    1  UNL1       -0.2764
      5 C         139.8260  138.1500  163.1411 C.2     1  UNL1        0.2301
      6 O         140.7377  137.0021  162.8229 O.2     1  UNL1       -0.2745
      7 C         140.8744  139.5209  161.1991 C.3     1  UNL1        0.1107
      8 C         140.9428  140.7803  160.3872 C.3     1  UNL1        0.0939
      9 C         140.0995  143.1876  159.8935 C.3     1  UNL1        0.0785
     10 C         140.9327  144.3413  160.3675 C.3     1  UNL1        0.0631
     11 O         144.9797  143.9886  166.2096 O.2     1  UNL1       -0.2448
     12 C         144.8004  143.4281  164.8299 C.2     1  UNL1        0.3429
     13 O         145.6608  142.3828  164.1841 O.3     1  UNL1       -0.4387
     14 C         145.1213  142.1232  162.8088 C.3     1  UNL1        0.2544
     15 C         143.9274  143.0081  162.6045 C.ar    1  UNL1        0.1085
     16 N         142.9954  143.1837  161.4425 N.ar    1  UNL1       -0.2500
     17 C         141.8649  144.1657  161.5296 C.ar    1  UNL1        0.0601
     18 C         141.6666  144.9722  162.7787 C.ar    1  UNL1        0.0150
     19 C         142.5987  144.7966  163.9407 C.ar    1  UNL1        0.0090
     20 C         143.7291  143.8146  163.8536 C.ar    1  UNL1        0.0928
     21 C         138.8460  138.0385  164.2712 C.3     1  UNL1        0.1116
     22 C         139.1371  138.7023  165.5846 C.ar    1  UNL1       -0.0130
     23 C         138.0648  138.8014  166.6287 C.ar    1  UNL1       -0.0022
     24 C         138.3558  139.4651  167.9420 C.ar    1  UNL1        0.0190
     25 C         139.7192  140.0296  168.2112 C.ar    1  UNL1        0.0862
     26 C         140.7915  139.9305  167.1670 C.ar    1  UNL1        0.0190
     27 C         140.5005  139.2668  165.8537 C.ar    1  UNL1       -0.0022
     28 N         140.0103  140.6933  169.5245 N.ar    1  UNL1       -0.1886
     29 C         139.8989  142.1608  169.8147 C.ar    1  UNL1        0.2258
     30 N         140.2836  142.3804  171.2477 N.ar    1  UNL1       -0.1045
     31 N         140.6328  141.0487  171.8433 N.ar    1  UNL1       -0.0222
     32 N         140.4638  140.0061  170.7783 N.ar    1  UNL1       -0.0385
@<TRIPOS>BOND
     1    11    12    2
     2    12    13    1
     3    13    14    1
     4    14    15    1
     5    15    16   ar
     6    16    17   ar
     7    17    10    1
     8    10     9    1
     9     9     1    1
    10     1     2    1
    11     2     3    1
    12     3     4    1
    13     4     5   am
    14     5     6    2
    15     5    21    1
    16    21    22    1
    17    22    23   ar
    18    23    24   ar
    19    24    25   ar
    20    25    28    1
    21    28    29   ar
    22    29    30   ar
    23    30    31   ar
    24    31    32   ar
    25    25    26   ar
    26    26    27   ar
    27     4     7    1
    28     7     8    1
    29    17    18   ar
    30    18    19   ar
    31    19    20   ar
    32    20    12    1
    33    20    15   ar
    34     8     1    1
    35    27    22   ar
    36    32    28   ar
@<TRIPOS>MOLECULE
*****
 32 36 0 0 0
SMALL
GASTEIGER

@<TRIPOS>ATOM
      1 N         142.2220  142.4099  159.8250 N.3     1  UNL1       -0.2694
      2 C         141.6884  141.3072  160.6905 C.3     1  UNL1        0.0939
      3 C         142.5199  140.7687  161.8169 C.3     1  UNL1        0.1107
      4 N         143.8850  141.3329  162.0777 N.am    1  UNL1       -0.2764
      5 C         144.7164  140.7944  163.2040 C.2     1  UNL1        0.2301
      6 O         146.0816  141.3587  163.4649 O.2     1  UNL1       -0.2745
      7 C         144.4186  142.4357  161.2122 C.3     1  UNL1        0.1107
      8 C         143.5872  142.9742  160.0859 C.3     1  UNL1        0.0939
      9 C         141.3905  142.9484  158.6987 C.3     1  UNL1        0.0785
     10 C         140.2374  143.8630  158.9883 C.3     1  UNL1        0.0631
     11 O         138.4330  145.3822  165.7016 O.2     1  UNL1       -0.2448
     12 C         138.2270  144.3964  164.5900 C.2     1  UNL1        0.3429
     13 O         137.3617  143.1725  164.6461 O.3     1  UNL1       -0.4387
     14 C         137.4500  142.4812  163.3178 C.3     1  UNL1        0.2544
     15 C         138.3699  143.2778  162.4408 C.ar    1  UNL1        0.1085
     16 N         138.8323  143.0783  161.0280 N.ar    1  UNL1       -0.2500
     17 C         139.7750  144.0625  160.4013 C.ar    1  UNL1        0.0601
     18 C         140.2552  145.2462  161.1876 C.ar    1  UNL1        0.0150
     19 C         139.7928  145.4458  162.6005 C.ar    1  UNL1        0.0090
     20 C         138.8501  144.4615  163.2271 C.ar    1  UNL1        0.0928
     21 C         144.1828  139.6917  164.0695 C.3     1  UNL1        0.1116
     22 C         143.6213  140.0066  165.4244 C.ar    1  UNL1       -0.0130
     23 C         143.3301  141.4283  165.8036 C.ar    1  UNL1       -0.0022
     24 C         142.7687  141.7433  167.1584 C.ar    1  UNL1        0.0190
     25 C         142.4985  140.6365  168.1341 C.ar    1  UNL1        0.0862
     26 C         142.7897  139.2147  167.7549 C.ar    1  UNL1        0.0190
     27 C         143.3512  138.8998  166.4001 C.ar    1  UNL1       -0.0022
     28 N         141.9370  140.9514  169.4890 N.ar    1  UNL1       -0.1886
     29 C         140.8704  140.1756  170.2034 C.ar    1  UNL1        0.2258
     30 N         140.6178  140.8421  171.5232 N.ar    1  UNL1       -0.1045
     31 N         141.5284  142.0299  171.6245 N.ar    1  UNL1       -0.0222
     32 N         142.3437  142.0973  170.3673 N.ar    1  UNL1       -0.0385
@<TRIPOS>BOND
     1    11    12    2
     2    12    13    1
     3    13    14    1
     4    14    15    1
     5    15    16   ar
     6    16    17   ar
     7    17    10    1
     8    10     9    1
     9     9     1    1
    10     1     2    1
    11     2     3    1
    12     3     4    1
    13     4     5   am
    14     5     6    2
    15     5    21    1
    16    21    22    1
    17    22    23   ar
    18    23    24   ar
    19    24    25   ar
    20    25    28    1
    21    28    29   ar
    22    29    30   ar
    23    30    31   ar
    24    31    32   ar
    25    25    26   ar
    26    26    27   ar
    27     4     7    1
    28     7     8    1
    29    17    18   ar
    30    18    19   ar
    31    19    20   ar
    32    20    12    1
    33    20    15   ar
    34     8     1    1
    35    27    22   ar
    36    32    28   ar
@<TRIPOS>MOLECULE
*****
 32 36 0 0 0
SMALL
GASTEIGER

@<TRIPOS>ATOM
      1 N         142.6031  141.4431  160.9623 N.3     1  UNL1       -0.2694
      2 C         143.1799  141.4393  162.3470 C.3     1  UNL1        0.0939
      3 C         142.8774  140.3062  163.2823 C.3     1  UNL1        0.1107
      4 N         141.9982  139.1771  162.8329 N.am    1  UNL1       -0.2764
      5 C         141.6958  138.0441  163.7682 C.2     1  UNL1        0.2301
      6 O         140.8166  136.9148  163.3189 O.2     1  UNL1       -0.2745
      7 C         141.4215  139.1809  161.4483 C.3     1  UNL1        0.1107
      8 C         141.7239  140.3139  160.5130 C.3     1  UNL1        0.0939
      9 C         142.9055  142.5761  160.0270 C.3     1  UNL1        0.0785
     10 C         142.3684  143.9474  160.3117 C.3     1  UNL1        0.0631
     11 O         138.5683  145.3295  166.1667 O.2     1  UNL1       -0.2448
     12 C         138.5146  144.6696  164.8207 C.2     1  UNL1        0.3429
     13 O         137.3326  143.9551  164.2356 O.3     1  UNL1       -0.4387
     14 C         137.7210  143.4523  162.8769 C.3     1  UNL1        0.2544
     15 C         139.1430  143.8559  162.6222 C.ar    1  UNL1        0.1085
     16 N         140.0546  143.6356  161.4516 N.ar    1  UNL1       -0.2500
     17 C         141.4567  144.1677  161.4823 C.ar    1  UNL1        0.0601
     18 C         141.9472  144.9201  162.6837 C.ar    1  UNL1        0.0150
     19 C         141.0356  145.1404  163.8544 C.ar    1  UNL1        0.0090
     20 C         139.6335  144.6083  163.8236 C.ar    1  UNL1        0.0928
     21 C         142.2725  138.0403  165.1529 C.3     1  UNL1        0.1116
     22 C         141.7859  139.0289  166.1708 C.ar    1  UNL1       -0.0130
     23 C         140.3606  139.4954  166.1415 C.ar    1  UNL1       -0.0022
     24 C         139.8740  140.4840  167.1593 C.ar    1  UNL1        0.0190
     25 C         140.8127  141.0059  168.2064 C.ar    1  UNL1        0.0862
     26 C         142.2380  140.5394  168.2356 C.ar    1  UNL1        0.0190
     27 C         142.7246  139.5508  167.2179 C.ar    1  UNL1       -0.0022
     28 N         140.3261  141.9945  169.2242 N.ar    1  UNL1       -0.1886
     29 C         140.6268  143.4640  169.2402 C.ar    1  UNL1        0.2258
     30 N         139.9399  144.0648  170.4306 N.ar    1  UNL1       -0.1045
     31 N         139.2146  142.9667  171.1504 N.ar    1  UNL1       -0.0222
     32 N         139.4532  141.6872  170.4048 N.ar    1  UNL1       -0.0385
@<TRIPOS>BOND
     1    11    12    2
     2    12    13    1
     3    13    14    1
     4    14    15    1
     5    15    16   ar
     6    16    17   ar
     7    17    10    1
     8    10     9    1
     9     9     1    1
    10     1     2    1
    11     2     3    1
    12     3     4    1
    13     4     5   am
    14     5     6    2
    15     5    21    1
    16    21    22    1
    17    22    23   ar
    18    23    24   ar
    19    24    25   ar
    20    25    28    1
    21    28    29   ar
    22    29    30   ar
    23    30    31   ar
    24    31    32   ar
    25    25    26   ar
    26    26    27   ar
    27     4     7    1
    28     7     8    1
    29    17    18   ar
    30    18    19   ar
    31    19    20   ar
    32    20    12    1
    33    20    15   ar
    34     8     1    1
    35    27    22   ar
    36    32    28   ar
@<TRIPOS>MOLECULE
*****
 32 36 0 0 0
SMALL
GASTEIGER

@<TRIPOS>ATOM
      1 N         139.4732  139.4050  160.6645 N.3     1  UNL1       -0.2694
      2 C         139.0448  140.5152  161.5777 C.3     1  UNL1        0.0939
      3 C         138.7437  140.2271  163.0187 C.3     1  UNL1        0.1107
      4 N         138.8710  138.8288  163.5465 N.am    1  UNL1       -0.2764
      5 C         138.5699  138.5407  164.9874 C.2     1  UNL1        0.2301
      6 O         138.6971  137.1423  165.5152 O.2     1  UNL1       -0.2745
      7 C         139.2993  137.7186  162.6333 C.3     1  UNL1        0.1107
      8 C         139.6004  138.0066  161.1923 C.3     1  UNL1        0.0939
      9 C         139.7743  139.6931  159.2236 C.3     1  UNL1        0.0785
     10 C         141.1889  139.9337  158.7866 C.3     1  UNL1        0.0631
     11 O         146.2806  141.5184  163.4977 O.2     1  UNL1       -0.2448
     12 C         145.1328  142.0934  162.7218 C.2     1  UNL1        0.3429
     13 O         144.6623  143.5169  162.7682 O.3     1  UNL1       -0.4387
     14 C         143.4927  143.6489  161.8383 C.3     1  UNL1        0.2544
     15 C         143.2404  142.3071  161.2172 C.ar    1  UNL1        0.1085
     16 N         142.2187  141.8364  160.2250 N.ar    1  UNL1       -0.2500
     17 C         142.2106  140.4044  159.7788 C.ar    1  UNL1        0.0601
     18 C         143.2243  139.4430  160.3248 C.ar    1  UNL1        0.0150
     19 C         144.2461  139.9136  161.3170 C.ar    1  UNL1        0.0090
     20 C         144.2541  141.3456  161.7632 C.ar    1  UNL1        0.0928
     21 C         138.1415  139.6509  165.9006 C.3     1  UNL1        0.1116
     22 C         139.1562  140.3563  166.7508 C.ar    1  UNL1       -0.0130
     23 C         139.7220  141.6727  166.3067 C.ar    1  UNL1       -0.0022
     24 C         140.7366  142.3781  167.1569 C.ar    1  UNL1        0.0190
     25 C         141.1855  141.7672  168.4512 C.ar    1  UNL1        0.0862
     26 C         140.6197  140.4509  168.8953 C.ar    1  UNL1        0.0190
     27 C         139.6051  139.7455  168.0451 C.ar    1  UNL1       -0.0022
     28 N         142.2002  142.4726  169.3015 N.ar    1  UNL1       -0.1886
     29 C         143.6863  142.2769  169.2459 C.ar    1  UNL1        0.2258
     30 N         144.3114  143.1809  170.2666 N.ar    1  UNL1       -0.1045
     31 N         143.2116  143.9354  170.9531 N.ar    1  UNL1       -0.0222
     32 N         141.9068  143.4976  170.3566 N.ar    1  UNL1       -0.0385
@<TRIPOS>BOND
     1    11    12    2
     2    12    13    1
     3    13    14    1
     4    14    15    1
     5    15    16   ar
     6    16    17   ar
     7    17    10    1
     8    10     9    1
     9     9     1    1
    10     1     2    1
    11     2     3    1
    12     3     4    1
    13     4     5   am
    14     5     6    2
    15     5    21    1
    16    21    22    1
    17    22    23   ar
    18    23    24   ar
    19    24    25   ar
    20    25    28    1
    21    28    29   ar
    22    29    30   ar
    23    30    31   ar
    24    31    32   ar
    25    25    26   ar
    26    26    27   ar
    27     4     7    1
    28     7     8    1
    29    17    18   ar
    30    18    19   ar
    31    19    20   ar
    32    20    12    1
    33    20    15   ar
    34     8     1    1
    35    27    22   ar
    36    32    28   ar
@<TRIPOS>MOLECULE
*****
 32 36 0 0 0
SMALL
GASTEIGER

@<TRIPOS>ATOM
      1 N         142.3051  139.1221  160.0653 N.3     1  UNL1       -0.2694
      2 C         141.9301  138.2983  161.2614 C.3     1  UNL1        0.0939
      3 C         142.6236  138.5209  162.5727 C.3     1  UNL1        0.1107
      4 N         143.6921  139.5673  162.6879 N.am    1  UNL1       -0.2764
      5 C         144.3856  139.7900  163.9991 C.2     1  UNL1        0.2301
      6 O         145.4541  140.8364  164.1143 O.2     1  UNL1       -0.2745
      7 C         144.0671  140.3912  161.4917 C.3     1  UNL1        0.1107
      8 C         143.3736  140.1686  160.1805 C.3     1  UNL1        0.0939
      9 C         141.6116  138.8995  158.7540 C.3     1  UNL1        0.0785
     10 C         140.5666  139.8677  158.2843 C.3     1  UNL1        0.0631
     11 O         137.7128  144.7564  162.5958 O.2     1  UNL1       -0.2448
     12 C         137.7940  143.2826  162.3285 C.2     1  UNL1        0.3429
     13 O         137.1109  142.2047  163.1169 O.3     1  UNL1       -0.4387
     14 C         137.4673  140.8840  162.5016 C.3     1  UNL1        0.2544
     15 C         138.3705  141.1456  161.3330 C.ar    1  UNL1        0.1085
     16 N         139.0352  140.2255  160.3524 N.ar    1  UNL1       -0.2500
     17 C         139.9018  140.7878  159.2649 C.ar    1  UNL1        0.0601
     18 C         140.1037  142.2703  159.1580 C.ar    1  UNL1        0.0150
     19 C         139.4390  143.1904  160.1385 C.ar    1  UNL1        0.0090
     20 C         138.5724  142.6281  161.2260 C.ar    1  UNL1        0.0928
     21 C         144.0105  138.9661  165.1953 C.3     1  UNL1        0.1116
     22 C         143.3111  139.6065  166.3575 C.ar    1  UNL1       -0.0130
     23 C         142.8981  141.0466  166.2835 C.ar    1  UNL1       -0.0022
     24 C         142.1987  141.6870  167.4457 C.ar    1  UNL1        0.0190
     25 C         141.9122  140.8872  168.6819 C.ar    1  UNL1        0.0862
     26 C         142.3251  139.4470  168.7559 C.ar    1  UNL1        0.0190
     27 C         143.0245  138.8067  167.5937 C.ar    1  UNL1       -0.0022
     28 N         141.2127  141.5275  169.8441 N.ar    1  UNL1       -0.1886
     29 C         140.1413  142.5740  169.7607 C.ar    1  UNL1        0.2258
     30 N         139.7283  142.9270  171.1589 N.ar    1  UNL1       -0.1045
     31 N         140.5444  142.0986  172.1064 N.ar    1  UNL1       -0.0222
     32 N         141.4618  141.2337  171.2938 N.ar    1  UNL1       -0.0385
@<TRIPOS>BOND
     1    11    12    2
     2    12    13    1
     3    13    14    1
     4    14    15    1
     5    15    16   ar
     6    16    17   ar
     7    17    10    1
     8    10     9    1
     9     9     1    1
    10     1     2    1
    11     2     3    1
    12     3     4    1
    13     4     5   am
    14     5     6    2
    15     5    21    1
    16    21    22    1
    17    22    23   ar
    18    23    24   ar
    19    24    25   ar
    20    25    28    1
    21    28    29   ar
    22    29    30   ar
    23    30    31   ar
    24    31    32   ar
    25    25    26   ar
    26    26    27   ar
    27     4     7    1
    28     7     8    1
    29    17    18   ar
    30    18    19   ar
    31    19    20   ar
    32    20    12    1
    33    20    15   ar
    34     8     1    1
    35    27    22   ar
    36    32    28   ar
@<TRIPOS>MOLECULE
*****
 32 36 0 0 0
SMALL
GASTEIGER

@<TRIPOS>ATOM
      1 N         143.5126  140.0814  160.0170 N.3     1  UNL1       -0.2694
      2 C         144.3012  139.9495  161.2861 C.3     1  UNL1        0.0939
      3 C         143.6745  139.3239  162.4969 C.3     1  UNL1        0.1107
      4 N         142.2593  138.8302  162.4385 N.am    1  UNL1       -0.2764
      5 C         141.6327  138.2046  163.6492 C.2     1  UNL1        0.2301
      6 O         140.2174  137.7109  163.5908 O.2     1  UNL1       -0.2745
      7 C         141.4707  138.9621  161.1693 C.3     1  UNL1        0.1107
      8 C         142.0974  139.5877  159.9586 C.3     1  UNL1        0.0939
      9 C         144.1393  140.7070  158.8062 C.3     1  UNL1        0.0785
     10 C         144.1961  142.2005  158.6781 C.3     1  UNL1        0.0631
     11 O         139.0808  146.2529  161.5142 O.2     1  UNL1       -0.2448
     12 C         140.3914  145.5840  161.8056 C.2     1  UNL1        0.3429
     13 O         141.1293  145.6213  163.1110 O.3     1  UNL1       -0.4387
     14 C         142.3881  144.8206  162.9548 C.3     1  UNL1        0.2544
     15 C         142.4281  144.2884  161.5529 C.ar    1  UNL1        0.1085
     16 N         143.4288  143.4352  160.8315 N.ar    1  UNL1       -0.2500
     17 C         143.1954  143.0537  159.3997 C.ar    1  UNL1        0.0601
     18 C         141.9613  143.5256  158.6894 C.ar    1  UNL1        0.0150
     19 C         140.9607  144.3788  159.4109 C.ar    1  UNL1        0.0090
     20 C         141.1940  144.7602  160.8427 C.ar    1  UNL1        0.0928
     21 C         142.4212  138.0727  164.9184 C.3     1  UNL1        0.1116
     22 C         142.0316  138.8674  166.1295 C.ar    1  UNL1       -0.0130
     23 C         140.7057  139.5676  166.1724 C.ar    1  UNL1       -0.0022
     24 C         140.3160  140.3622  167.3834 C.ar    1  UNL1        0.0190
     25 C         141.2522  140.4567  168.5515 C.ar    1  UNL1        0.0862
     26 C         142.5780  139.7565  168.5086 C.ar    1  UNL1        0.0190
     27 C         142.9677  138.9619  167.2976 C.ar    1  UNL1       -0.0022
     28 N         140.8625  141.2514  169.7626 N.ar    1  UNL1       -0.1886
     29 C         141.4813  141.1433  171.1247 C.ar    1  UNL1        0.2258
     30 N         140.7869  142.1188  172.0281 N.ar    1  UNL1       -0.1045
     31 N         139.7387  142.8298  171.2243 N.ar    1  UNL1       -0.0222
     32 N         139.7855  142.2937  169.8242 N.ar    1  UNL1       -0.0385
@<TRIPOS>BOND
     1    11    12    2
     2    12    13    1
     3    13    14    1
     4    14    15    1
     5    15    16   ar
     6    16    17   ar
     7    17    10    1
     8    10     9    1
     9     9     1    1
    10     1     2    1
    11     2     3    1
    12     3     4    1
    13     4     5   am
    14     5     6    2
    15     5    21    1
    16    21    22    1
    17    22    23   ar
    18    23    24   ar
    19    24    25   ar
    20    25    28    1
    21    28    29   ar
    22    29    30   ar
    23    30    31   ar
    24    31    32   ar
    25    25    26   ar
    26    26    27   ar
    27     4     7    1
    28     7     8    1
    29    17    18   ar
    30    18    19   ar
    31    19    20   ar
    32    20    12    1
    33    20    15   ar
    34     8     1    1
    35    27    22   ar
    36    32    28   ar
@<TRIPOS>MOLECULE
*****
 32 36 0 0 0
SMALL
GASTEIGER

@<TRIPOS>ATOM
      1 N         141.8325  138.3316  159.1605 N.3     1  UNL1       -0.2694
      2 C         142.6283  138.1119  160.4128 C.3     1  UNL1        0.0939
      3 C         141.9329  138.0370  161.7399 C.3     1  UNL1        0.1107
      4 N         140.4418  138.1818  161.8145 N.am    1  UNL1       -0.2764
      5 C         139.7465  138.1069  163.1415 C.2     1  UNL1        0.2301
      6 O         138.2554  138.2517  163.2161 O.2     1  UNL1       -0.2745
      7 C         139.6460  138.4015  160.5621 C.3     1  UNL1        0.1107
      8 C         140.3413  138.4764  159.2351 C.3     1  UNL1        0.0939
      9 C         142.5277  138.4065  157.8335 C.3     1  UNL1        0.0785
     10 C         141.9734  137.6648  156.6534 C.3     1  UNL1        0.0631
     11 O         142.4486  130.6409  155.6182 O.2     1  UNL1       -0.2448
     12 C         143.0377  131.7914  156.3794 C.2     1  UNL1        0.3429
     13 O         144.1664  131.7114  157.3642 O.3     1  UNL1       -0.4387
     14 C         144.4277  133.0944  157.8829 C.3     1  UNL1        0.2544
     15 C         143.4606  134.0291  157.2187 C.ar    1  UNL1        0.1085
     16 N         143.2512  135.5094  157.3400 N.ar    1  UNL1       -0.2500
     17 C         142.1828  136.1844  156.5321 C.ar    1  UNL1        0.0601
     18 C         141.3237  135.3791  155.6029 C.ar    1  UNL1        0.0150
     19 C         141.5331  133.8987  155.4816 C.ar    1  UNL1        0.0090
     20 C         142.6015  133.2237  156.2895 C.ar    1  UNL1        0.0928
     21 C         140.5424  137.8872  164.3938 C.3     1  UNL1        0.1116
     22 C         140.4269  138.8538  165.5351 C.ar    1  UNL1       -0.0130
     23 C         141.5896  139.7297  165.8967 C.ar    1  UNL1       -0.0022
     24 C         141.4742  140.6962  167.0379 C.ar    1  UNL1        0.0190
     25 C         140.1960  140.7869  167.8175 C.ar    1  UNL1        0.0862
     26 C         139.0332  139.9110  167.4559 C.ar    1  UNL1        0.0190
     27 C         139.1486  138.9444  166.3147 C.ar    1  UNL1       -0.0022
     28 N         140.0804  141.7535  168.9588 N.ar    1  UNL1       -0.1886
     29 C         140.4565  143.2052  168.9262 C.ar    1  UNL1        0.2258
     30 N         140.1771  143.7869  170.2802 N.ar    1  UNL1       -0.1045
     31 N         139.6283  142.6947  171.1497 N.ar    1  UNL1       -0.0222
     32 N         139.5686  141.4380  170.3330 N.ar    1  UNL1       -0.0385
@<TRIPOS>BOND
     1    11    12    2
     2    12    13    1
     3    13    14    1
     4    14    15    1
     5    15    16   ar
     6    16    17   ar
     7    17    10    1
     8    10     9    1
     9     9     1    1
    10     1     2    1
    11     2     3    1
    12     3     4    1
    13     4     5   am
    14     5     6    2
    15     5    21    1
    16    21    22    1
    17    22    23   ar
    18    23    24   ar
    19    24    25   ar
    20    25    28    1
    21    28    29   ar
    22    29    30   ar
    23    30    31   ar
    24    31    32   ar
    25    25    26   ar
    26    26    27   ar
    27     4     7    1
    28     7     8    1
    29    17    18   ar
    30    18    19   ar
    31    19    20   ar
    32    20    12    1
    33    20    15   ar
    34     8     1    1
    35    27    22   ar
    36    32    28   ar
