@<TRIPOS>MOLECULE
*****
 30 33 0 0 0
SMALL
GASTEIGER

@<TRIPOS>ATOM
      1 C         141.3831  140.9536  169.3329 C.ar    1  UNL1        0.0728
      2 C         142.1467  139.7144  169.6949 C.ar    1  UNL1        0.1048
      3 N         142.8758  138.9457  168.6332 N.ar    1  UNL1       -0.2287
      4 C         142.8413  139.4163  167.2092 C.ar    1  UNL1        0.1345
      5 C         142.0777  140.6555  166.8472 C.ar    1  UNL1        0.0610
      6 S         141.8648  141.3568  165.5385 S.2     1  UNL1       -0.0841
      7 C         141.0041  142.5590  165.7915 C.ar    1  UNL1        0.0296
      8 C         140.6850  142.6006  167.2566 C.ar    1  UNL1        0.0073
      9 C         141.3486  141.4242  167.9091 C.ar    1  UNL1        0.0151
     10 C         140.5433  143.5462  164.7604 C.ar    1  UNL1        0.0082
     11 C         141.5304  144.4742  164.1167 C.ar    1  UNL1        0.0006
     12 C         141.0695  145.4614  163.0856 C.ar    1  UNL1        0.0023
     13 C         139.6216  145.5206  162.6983 C.ar    1  UNL1        0.0296
     14 C         138.6345  144.5926  163.3420 C.ar    1  UNL1        0.1402
     15 F         137.1866  144.6517  162.9548 F       1  UNL1       -0.2042
     16 C         139.0954  143.6054  164.3731 C.ar    1  UNL1        0.0301
     17 N         141.4096  142.6426  171.3069 N.am    1  UNL1       -0.3253
     18 C         140.6540  141.7223  170.3948 C.2     1  UNL1        0.2443
     19 O         139.1691  141.5706  170.5445 O.2     1  UNL1       -0.2703
     20 H         140.9311  143.1471  172.0038 H       1  UNL1        0.1453
     21 H         142.3841  142.7422  171.2087 H       1  UNL1        0.1453
     22 N         143.5705  138.6475  166.1474 N.pl3   1  UNL1       -0.3180
     23 H         144.5003  138.3612  166.2979 H       1  UNL1        0.1482
     24 C         142.8829  138.3150  164.8564 C.3     1  UNL1        0.0861
     25 C         141.5672  137.5948  164.8713 C.3     1  UNL1        0.0224
     26 C         140.8796  137.2623  163.5804 C.3     1  UNL1        0.0188
     27 C         141.5077  137.6501  162.2745 C.3     1  UNL1        0.0687
     28 N         142.8234  138.3703  162.2597 N.3     1  UNL1       -0.2961
     29 C         143.5110  138.7028  163.5506 C.3     1  UNL1        0.0883
     30 H         142.6705  139.2528  161.7717 H       1  UNL1        0.1233
@<TRIPOS>BOND
     1    17    18   am
     2    18    19    2
     3    18     1    1
     4     1     2   ar
     5     2     3   ar
     6     3     4   ar
     7     4    22    1
     8    24    22    1
     9    24    25    1
    10    25    26    1
    11    26    27    1
    12    27    28    1
    13    28    29    1
    14     4     5   ar
    15     5     6   ar
    16     6     7   ar
    17     7    10    1
    18    10    11   ar
    19    11    12   ar
    20    12    13   ar
    21    13    14   ar
    22    14    15    1
    23    14    16   ar
    24     7     8   ar
    25     8     9   ar
    26     9     1   ar
    27    29    24    1
    28     9     5   ar
    29    16    10   ar
    30    17    20    1
    31    17    21    1
    32    22    23    1
    33    28    30    1
@<TRIPOS>MOLECULE
*****
 30 33 0 0 0
SMALL
GASTEIGER

@<TRIPOS>ATOM
      1 C         141.9743  141.4662  169.3760 C.ar    1  UNL1        0.0728
      2 C         142.7460  140.2336  169.7437 C.ar    1  UNL1        0.1048
      3 N         143.0231  139.1853  168.7075 N.ar    1  UNL1       -0.2287
      4 C         142.5287  139.3694  167.3033 C.ar    1  UNL1        0.1345
      5 C         141.7570  140.6020  166.9355 C.ar    1  UNL1        0.0610
      6 S         141.1475  141.0560  165.6423 S.2     1  UNL1       -0.0841
      7 C         140.4936  142.3849  165.8794 C.ar    1  UNL1        0.0296
      8 C         140.6990  142.7523  167.3192 C.ar    1  UNL1        0.0073
      9 C         141.4798  141.6504  167.9719 C.ar    1  UNL1        0.0151
     10 C         139.7626  143.2029  164.8564 C.ar    1  UNL1        0.0082
     11 C         138.3189  142.9208  164.5627 C.ar    1  UNL1        0.0006
     12 C         137.5880  143.7389  163.5397 C.ar    1  UNL1        0.0023
     13 C         138.3006  144.8390  162.8104 C.ar    1  UNL1        0.0296
     14 C         139.7443  145.1211  163.1041 C.ar    1  UNL1        0.1402
     15 F         140.4570  146.2212  162.3749 F       1  UNL1       -0.2042
     16 C         140.4752  144.3031  164.1272 C.ar    1  UNL1        0.0301
     17 N         140.4802  142.4058  171.2825 N.am    1  UNL1       -0.3253
     18 C         141.6971  142.5146  170.4124 C.2     1  UNL1        0.2443
     19 O         142.6370  143.6719  170.5786 O.2     1  UNL1       -0.2703
     20 H         140.2983  143.0939  171.9627 H       1  UNL1        0.1453
     21 H         139.8634  141.6463  171.1734 H       1  UNL1        0.1453
     22 N         142.8059  138.3210  166.2669 N.pl3   1  UNL1       -0.3180
     23 H         142.6778  137.3691  166.4832 H       1  UNL1        0.1482
     24 C         143.2782  138.7228  164.9012 C.3     1  UNL1        0.0861
     25 C         142.4854  138.3333  163.6888 C.3     1  UNL1        0.0224
     26 C         142.9577  138.7351  162.3230 C.3     1  UNL1        0.0188
     27 C         144.2228  139.5264  162.1695 C.3     1  UNL1        0.0687
     28 N         145.0155  139.9158  163.3819 N.3     1  UNL1       -0.2961
     29 C         144.5433  139.5141  164.7477 C.3     1  UNL1        0.0883
     30 H         145.0766  140.9340  163.3792 H       1  UNL1        0.1233
@<TRIPOS>BOND
     1    17    18   am
     2    18    19    2
     3    18     1    1
     4     1     2   ar
     5     2     3   ar
     6     3     4   ar
     7     4    22    1
     8    24    22    1
     9    24    25    1
    10    25    26    1
    11    26    27    1
    12    27    28    1
    13    28    29    1
    14     4     5   ar
    15     5     6   ar
    16     6     7   ar
    17     7    10    1
    18    10    11   ar
    19    11    12   ar
    20    12    13   ar
    21    13    14   ar
    22    14    15    1
    23    14    16   ar
    24     7     8   ar
    25     8     9   ar
    26     9     1   ar
    27    29    24    1
    28     9     5   ar
    29    16    10   ar
    30    17    20    1
    31    17    21    1
    32    22    23    1
    33    28    30    1
@<TRIPOS>MOLECULE
*****
 30 33 0 0 0
SMALL
GASTEIGER

@<TRIPOS>ATOM
      1 C         139.2244  138.1861  164.6586 C.ar    1  UNL1        0.0728
      2 C         138.3498  137.4671  165.6425 C.ar    1  UNL1        0.1048
      3 N         138.1377  138.0368  167.0137 N.ar    1  UNL1       -0.2287
      4 C         138.8001  139.3256  167.4011 C.ar    1  UNL1        0.1345
      5 C         139.6747  140.0447  166.4173 C.ar    1  UNL1        0.0610
      6 S         140.4532  141.3233  166.5135 S.2     1  UNL1       -0.0841
      7 C         141.1464  141.5437  165.2017 C.ar    1  UNL1        0.0296
      8 C         140.7964  140.4014  164.2947 C.ar    1  UNL1        0.0073
      9 C         139.8869  139.4749  165.0460 C.ar    1  UNL1        0.0151
     10 C         142.0338  142.7030  164.8574 C.ar    1  UNL1        0.0082
     11 C         141.6344  143.6562  163.7703 C.ar    1  UNL1        0.0006
     12 C         142.5219  144.8155  163.4259 C.ar    1  UNL1        0.0023
     13 C         143.8088  145.0215  164.1687 C.ar    1  UNL1        0.0296
     14 C         144.2081  144.0683  165.2557 C.ar    1  UNL1        0.1402
     15 F         145.4949  144.2742  165.9985 F       1  UNL1       -0.2042
     16 C         143.3206  142.9090  165.6001 C.ar    1  UNL1        0.0301
     17 N         138.3232  137.6455  162.2825 N.am    1  UNL1       -0.3253
     18 C         139.4366  137.6163  163.2873 C.2     1  UNL1        0.2443
     19 O         140.7622  137.0174  162.9208 O.2     1  UNL1       -0.2703
     20 H         138.4625  137.2716  161.3825 H       1  UNL1        0.1453
     21 H         137.4533  138.0386  162.5231 H       1  UNL1        0.1453
     22 N         138.5879  139.8953  168.7725 N.pl3   1  UNL1       -0.3180
     23 H         137.6874  139.8983  169.1703 H       1  UNL1        0.1482
     24 C         139.7478  140.4605  169.5375 C.3     1  UNL1        0.0861
     25 C         140.9996  139.6518  169.7074 C.3     1  UNL1        0.0224
     26 C         142.1595  140.2168  170.4724 C.3     1  UNL1        0.0188
     27 C         142.0675  141.5906  171.0677 C.3     1  UNL1        0.0687
     28 N         140.8156  142.3993  170.8978 N.3     1  UNL1       -0.2961
     29 C         139.6558  141.8342  170.1328 C.3     1  UNL1        0.0883
     30 H         141.0850  143.2638  170.4283 H       1  UNL1        0.1233
@<TRIPOS>BOND
     1    17    18   am
     2    18    19    2
     3    18     1    1
     4     1     2   ar
     5     2     3   ar
     6     3     4   ar
     7     4    22    1
     8    24    22    1
     9    24    25    1
    10    25    26    1
    11    26    27    1
    12    27    28    1
    13    28    29    1
    14     4     5   ar
    15     5     6   ar
    16     6     7   ar
    17     7    10    1
    18    10    11   ar
    19    11    12   ar
    20    12    13   ar
    21    13    14   ar
    22    14    15    1
    23    14    16   ar
    24     7     8   ar
    25     8     9   ar
    26     9     1   ar
    27    29    24    1
    28     9     5   ar
    29    16    10   ar
    30    17    20    1
    31    17    21    1
    32    22    23    1
    33    28    30    1
@<TRIPOS>MOLECULE
*****
 30 33 0 0 0
SMALL
GASTEIGER

@<TRIPOS>ATOM
      1 C         140.8740  138.9068  163.1609 C.ar    1  UNL1        0.0728
      2 C         141.4347  139.2536  161.8135 C.ar    1  UNL1        0.1048
      3 N         141.9974  140.6216  161.5649 N.ar    1  UNL1       -0.2287
      4 C         141.9995  141.6429  162.6635 C.ar    1  UNL1        0.1345
      5 C         141.4388  141.2960  164.0109 C.ar    1  UNL1        0.0610
      6 S         141.3061  142.0891  165.2771 S.2     1  UNL1       -0.0841
      7 C         140.6613  141.2112  166.3084 C.ar    1  UNL1        0.0296
      8 C         140.3955  139.8756  165.6795 C.ar    1  UNL1        0.0073
      9 C         140.8761  139.9280  164.2596 C.ar    1  UNL1        0.0151
     10 C         140.3388  141.6006  167.7206 C.ar    1  UNL1        0.0082
     11 C         139.7306  140.5971  168.6550 C.ar    1  UNL1        0.0006
     12 C         139.4082  140.9866  170.0673 C.ar    1  UNL1        0.0023
     13 C         139.6938  142.3794  170.5451 C.ar    1  UNL1        0.0296
     14 C         140.3020  143.3829  169.6107 C.ar    1  UNL1        0.1402
     15 F         140.5877  144.7757  170.0885 F       1  UNL1       -0.2042
     16 C         140.6245  142.9934  168.1985 C.ar    1  UNL1        0.0301
     17 N         141.2020  136.4413  163.9116 N.am    1  UNL1       -0.3253
     18 C         140.3113  137.5388  163.4096 C.2     1  UNL1        0.2443
     19 O         138.8577  137.2682  163.1561 O.2     1  UNL1       -0.2703
     20 H         140.8327  135.5434  164.0749 H       1  UNL1        0.1453
     21 H         142.1560  136.6188  164.0780 H       1  UNL1        0.1453
     22 N         142.5622  143.0109  162.4148 N.pl3   1  UNL1       -0.3180
     23 H         143.5299  143.1688  162.5039 H       1  UNL1        0.1482
     24 C         141.6507  144.1383  162.0303 C.3     1  UNL1        0.0861
     25 C         141.1027  144.2176  160.6362 C.3     1  UNL1        0.0224
     26 C         140.1911  145.3450  160.2517 C.3     1  UNL1        0.0188
     27 C         139.8275  146.3931  161.2612 C.3     1  UNL1        0.0687
     28 N         140.3755  146.3139  162.6553 N.3     1  UNL1       -0.2961
     29 C         141.2871  145.1865  163.0398 C.3     1  UNL1        0.0883
     30 H         139.5740  146.2723  163.2848 H       1  UNL1        0.1233
@<TRIPOS>BOND
     1    17    18   am
     2    18    19    2
     3    18     1    1
     4     1     2   ar
     5     2     3   ar
     6     3     4   ar
     7     4    22    1
     8    24    22    1
     9    24    25    1
    10    25    26    1
    11    26    27    1
    12    27    28    1
    13    28    29    1
    14     4     5   ar
    15     5     6   ar
    16     6     7   ar
    17     7    10    1
    18    10    11   ar
    19    11    12   ar
    20    12    13   ar
    21    13    14   ar
    22    14    15    1
    23    14    16   ar
    24     7     8   ar
    25     8     9   ar
    26     9     1   ar
    27    29    24    1
    28     9     5   ar
    29    16    10   ar
    30    17    20    1
    31    17    21    1
    32    22    23    1
    33    28    30    1
@<TRIPOS>MOLECULE
*****
 30 33 0 0 0
SMALL
GASTEIGER

@<TRIPOS>ATOM
      1 C         138.9778  138.9840  164.3968 C.ar    1  UNL1        0.0728
      2 C         138.1795  139.1722  163.1409 C.ar    1  UNL1        0.1048
      3 N         137.7923  140.5519  162.6980 N.ar    1  UNL1       -0.2287
      4 C         138.2034  141.7437  163.5110 C.ar    1  UNL1        0.1345
      5 C         139.0017  141.5555  164.7669 C.ar    1  UNL1        0.0610
      6 S         139.5461  142.5329  165.7660 S.2     1  UNL1       -0.0841
      7 C         140.2698  141.7572  166.8264 C.ar    1  UNL1        0.0296
      8 C         140.1727  140.3003  166.4827 C.ar    1  UNL1        0.0073
      9 C         139.3889  140.1757  165.2098 C.ar    1  UNL1        0.0151
     10 C         140.9681  142.3366  168.0209 C.ar    1  UNL1        0.0082
     11 C         140.2408  143.2840  168.9283 C.ar    1  UNL1        0.0006
     12 C         140.9392  143.8633  170.1228 C.ar    1  UNL1        0.0023
     13 C         142.3647  143.4952  170.4098 C.ar    1  UNL1        0.0296
     14 C         143.0919  142.5478  169.5024 C.ar    1  UNL1        0.1402
     15 F         144.5174  142.1796  169.7894 F       1  UNL1       -0.2042
     16 C         142.3936  141.9684  168.3079 C.ar    1  UNL1        0.0301
     17 N         140.6816  137.0227  164.4173 N.am    1  UNL1       -0.3253
     18 C         139.3650  137.6042  164.8397 C.2     1  UNL1        0.2443
     19 O         138.4356  136.8058  165.7051 O.2     1  UNL1       -0.2703
     20 H         140.9358  136.1171  164.7080 H       1  UNL1        0.1453
     21 H         141.2916  137.5467  163.8493 H       1  UNL1        0.1453
     22 N         137.8161  143.1235  163.0680 N.pl3   1  UNL1       -0.3180
     23 H         136.9592  143.5115  163.3587 H       1  UNL1        0.1482
     24 C         138.7344  143.9121  162.1822 C.3     1  UNL1        0.0861
     25 C         139.1216  145.3113  162.5594 C.3     1  UNL1        0.0224
     26 C         140.0399  146.1001  161.6736 C.3     1  UNL1        0.0188
     27 C         140.5709  145.4896  160.4105 C.3     1  UNL1        0.0687
     28 N         140.1836  144.0904  160.0333 N.3     1  UNL1       -0.2961
     29 C         139.2654  143.3017  160.9191 C.3     1  UNL1        0.0883
     30 H         141.0490  143.5561  159.9560 H       1  UNL1        0.1233
@<TRIPOS>BOND
     1    17    18   am
     2    18    19    2
     3    18     1    1
     4     1     2   ar
     5     2     3   ar
     6     3     4   ar
     7     4    22    1
     8    24    22    1
     9    24    25    1
    10    25    26    1
    11    26    27    1
    12    27    28    1
    13    28    29    1
    14     4     5   ar
    15     5     6   ar
    16     6     7   ar
    17     7    10    1
    18    10    11   ar
    19    11    12   ar
    20    12    13   ar
    21    13    14   ar
    22    14    15    1
    23    14    16   ar
    24     7     8   ar
    25     8     9   ar
    26     9     1   ar
    27    29    24    1
    28     9     5   ar
    29    16    10   ar
    30    17    20    1
    31    17    21    1
    32    22    23    1
    33    28    30    1
@<TRIPOS>MOLECULE
*****
 30 33 0 0 0
SMALL
GASTEIGER

@<TRIPOS>ATOM
      1 C         139.9723  143.9182  161.4684 C.ar    1  UNL1        0.0728
      2 C         139.2619  143.2035  160.3573 C.ar    1  UNL1        0.1048
      3 N         138.7240  141.8209  160.5781 N.ar    1  UNL1       -0.2287
      4 C         138.8964  141.1529  161.9101 C.ar    1  UNL1        0.1345
      5 C         139.6067  141.8676  163.0212 C.ar    1  UNL1        0.0610
      6 S         139.9251  141.4660  164.4309 S.2     1  UNL1       -0.0841
      7 C         140.6599  142.6005  165.0813 C.ar    1  UNL1        0.0296
      8 C         140.7956  143.7032  164.0736 C.ar    1  UNL1        0.0073
      9 C         140.1447  143.2503  162.8003 C.ar    1  UNL1        0.0151
     10 C         141.1696  142.6275  166.4918 C.ar    1  UNL1        0.0082
     11 C         142.5975  142.2701  166.7803 C.ar    1  UNL1        0.0006
     12 C         143.1071  142.2971  168.1909 C.ar    1  UNL1        0.0023
     13 C         142.1888  142.6815  169.3129 C.ar    1  UNL1        0.0296
     14 C         140.7609  143.0389  169.0244 C.ar    1  UNL1        0.1402
     15 F         139.8425  143.4233  170.1463 F       1  UNL1       -0.2042
     16 C         140.2513  143.0119  167.6138 C.ar    1  UNL1        0.0301
     17 N         141.6901  145.5114  160.3456 N.am    1  UNL1       -0.3253
     18 C         140.5102  145.3009  161.2475 C.2     1  UNL1        0.2443
     19 O         139.8682  146.4732  161.9286 O.2     1  UNL1       -0.2703
     20 H         142.0432  146.4190  160.2006 H       1  UNL1        0.1453
     21 H         142.1115  144.7421  159.8986 H       1  UNL1        0.1453
     22 N         138.3583  139.7701  162.1309 N.pl3   1  UNL1       -0.3180
     23 H         137.4418  139.5477  161.8487 H       1  UNL1        0.1482
     24 C         139.2169  138.7264  162.7816 C.3     1  UNL1        0.0861
     25 C         138.9014  138.2548  164.1701 C.3     1  UNL1        0.0224
     26 C         139.7598  137.2110  164.8209 C.3     1  UNL1        0.0188
     27 C         140.9338  136.6388  164.0831 C.3     1  UNL1        0.0687
     28 N         141.2493  137.1104  162.6945 N.3     1  UNL1       -0.2961
     29 C         140.3908  138.1542  162.0438 C.3     1  UNL1        0.0883
     30 H         141.2219  136.2885  162.0911 H       1  UNL1        0.1233
@<TRIPOS>BOND
     1    17    18   am
     2    18    19    2
     3    18     1    1
     4     1     2   ar
     5     2     3   ar
     6     3     4   ar
     7     4    22    1
     8    24    22    1
     9    24    25    1
    10    25    26    1
    11    26    27    1
    12    27    28    1
    13    28    29    1
    14     4     5   ar
    15     5     6   ar
    16     6     7   ar
    17     7    10    1
    18    10    11   ar
    19    11    12   ar
    20    12    13   ar
    21    13    14   ar
    22    14    15    1
    23    14    16   ar
    24     7     8   ar
    25     8     9   ar
    26     9     1   ar
    27    29    24    1
    28     9     5   ar
    29    16    10   ar
    30    17    20    1
    31    17    21    1
    32    22    23    1
    33    28    30    1
@<TRIPOS>MOLECULE
*****
 30 33 0 0 0
SMALL
GASTEIGER

@<TRIPOS>ATOM
      1 C         140.1352  138.5420  162.9528 C.ar    1  UNL1        0.0728
      2 C         141.0543  138.5082  161.7678 C.ar    1  UNL1        0.1048
      3 N         142.3169  139.3178  161.7746 N.ar    1  UNL1       -0.2287
      4 C         142.6605  140.1615  162.9664 C.ar    1  UNL1        0.1345
      5 C         141.7414  140.1954  164.1513 C.ar    1  UNL1        0.0610
      6 S         141.8156  140.9275  165.4585 S.2     1  UNL1       -0.0841
      7 C         140.5988  140.5701  166.2595 C.ar    1  UNL1        0.0296
      8 C         139.7726  139.6172  165.4474 C.ar    1  UNL1        0.0073
      9 C         140.4788  139.3856  164.1445 C.ar    1  UNL1        0.0151
     10 C         140.2665  141.0768  167.6317 C.ar    1  UNL1        0.0082
     11 C         139.5398  140.1931  168.6018 C.ar    1  UNL1        0.0006
     12 C         139.2075  140.6999  169.9740 C.ar    1  UNL1        0.0023
     13 C         139.6019  142.0901  170.3761 C.ar    1  UNL1        0.0296
     14 C         140.3285  142.9737  169.4059 C.ar    1  UNL1        0.1402
     15 F         140.7229  144.3640  169.8079 F       1  UNL1       -0.2042
     16 C         140.6608  142.4670  168.0337 C.ar    1  UNL1        0.0301
     17 N         137.9906  137.7285  161.7327 N.am    1  UNL1       -0.3253
     18 C         138.8726  137.7323  162.9460 C.2     1  UNL1        0.2443
     19 O         138.4920  136.9262  164.1525 O.2     1  UNL1       -0.2703
     20 H         137.1619  137.1970  161.7282 H       1  UNL1        0.1453
     21 H         138.2404  138.2575  160.9409 H       1  UNL1        0.1453
     22 N         143.9232  140.9713  162.9731 N.pl3   1  UNL1       -0.3180
     23 H         144.7925  140.5287  162.8402 H       1  UNL1        0.1482
     24 C         143.8614  142.4553  163.1824 C.3     1  UNL1        0.0861
     25 C         144.2990  143.0472  164.4894 C.3     1  UNL1        0.0224
     26 C         144.2372  144.5312  164.6987 C.3     1  UNL1        0.0188
     27 C         143.7378  145.4233  163.6011 C.3     1  UNL1        0.0687
     28 N         143.3002  144.8314  162.2941 N.3     1  UNL1       -0.2961
     29 C         143.3620  143.3474  162.0848 C.3     1  UNL1        0.0883
     30 H         143.8802  145.2553  161.5700 H       1  UNL1        0.1233
@<TRIPOS>BOND
     1    17    18   am
     2    18    19    2
     3    18     1    1
     4     1     2   ar
     5     2     3   ar
     6     3     4   ar
     7     4    22    1
     8    24    22    1
     9    24    25    1
    10    25    26    1
    11    26    27    1
    12    27    28    1
    13    28    29    1
    14     4     5   ar
    15     5     6   ar
    16     6     7   ar
    17     7    10    1
    18    10    11   ar
    19    11    12   ar
    20    12    13   ar
    21    13    14   ar
    22    14    15    1
    23    14    16   ar
    24     7     8   ar
    25     8     9   ar
    26     9     1   ar
    27    29    24    1
    28     9     5   ar
    29    16    10   ar
    30    17    20    1
    31    17    21    1
    32    22    23    1
    33    28    30    1
@<TRIPOS>MOLECULE
*****
 30 33 0 0 0
SMALL
GASTEIGER

@<TRIPOS>ATOM
      1 C         139.9220  144.1371  161.8092 C.ar    1  UNL1        0.0728
      2 C         139.7834  143.6312  160.4039 C.ar    1  UNL1        0.1048
      3 N         139.6299  142.1614  160.1477 N.ar    1  UNL1       -0.2287
      4 C         139.6149  141.1972  161.2967 C.ar    1  UNL1        0.1345
      5 C         139.7535  141.7030  162.7020 C.ar    1  UNL1        0.0610
      6 S         139.7739  140.9972  164.0254 S.2     1  UNL1       -0.0841
      7 C         139.9401  142.0309  165.0995 C.ar    1  UNL1        0.0296
      8 C         140.0224  143.3756  164.4400 C.ar    1  UNL1        0.0073
      9 C         139.9070  143.1730  162.9583 C.ar    1  UNL1        0.0151
     10 C         140.0115  141.7663  166.5743 C.ar    1  UNL1        0.0082
     11 C         139.6518  140.4129  167.1118 C.ar    1  UNL1        0.0006
     12 C         139.7232  140.1484  168.5866 C.ar    1  UNL1        0.0023
     13 C         140.1543  141.2373  169.5239 C.ar    1  UNL1        0.0296
     14 C         140.5139  142.5907  168.9864 C.ar    1  UNL1        0.1402
     15 F         140.9449  143.6796  169.9236 F       1  UNL1       -0.2042
     16 C         140.4425  142.8552  167.5116 C.ar    1  UNL1        0.0301
     17 N         141.1211  146.0962  163.0234 N.am    1  UNL1       -0.3253
     18 C         140.0756  145.6070  162.0655 C.2     1  UNL1        0.2443
     19 O         139.1835  146.5879  161.3638 O.2     1  UNL1       -0.2703
     20 H         141.2219  147.0609  163.1916 H       1  UNL1        0.1453
     21 H         141.7065  145.4524  163.4840 H       1  UNL1        0.1453
     22 N         139.4613  139.7272  161.0404 N.pl3   1  UNL1       -0.3180
     23 H         138.5708  139.3099  161.0863 H       1  UNL1        0.1482
     24 C         140.6645  138.8931  160.7141 C.3     1  UNL1        0.0861
     25 C         141.2475  138.9259  159.3324 C.3     1  UNL1        0.0224
     26 C         142.4507  138.0917  159.0061 C.3     1  UNL1        0.0188
     27 C         143.0709  137.2249  160.0614 C.3     1  UNL1        0.0687
     28 N         142.4880  137.1921  161.4431 N.3     1  UNL1       -0.2961
     29 C         141.2848  138.0262  161.7695 C.3     1  UNL1        0.0883
     30 H         143.2286  137.4810  162.0821 H       1  UNL1        0.1233
@<TRIPOS>BOND
     1    17    18   am
     2    18    19    2
     3    18     1    1
     4     1     2   ar
     5     2     3   ar
     6     3     4   ar
     7     4    22    1
     8    24    22    1
     9    24    25    1
    10    25    26    1
    11    26    27    1
    12    27    28    1
    13    28    29    1
    14     4     5   ar
    15     5     6   ar
    16     6     7   ar
    17     7    10    1
    18    10    11   ar
    19    11    12   ar
    20    12    13   ar
    21    13    14   ar
    22    14    15    1
    23    14    16   ar
    24     7     8   ar
    25     8     9   ar
    26     9     1   ar
    27    29    24    1
    28     9     5   ar
    29    16    10   ar
    30    17    20    1
    31    17    21    1
    32    22    23    1
    33    28    30    1
@<TRIPOS>MOLECULE
*****
 30 33 0 0 0
SMALL
GASTEIGER

@<TRIPOS>ATOM
      1 C         140.5884  144.4462  162.0568 C.ar    1  UNL1        0.0728
      2 C         141.4648  144.3525  160.8431 C.ar    1  UNL1        0.1048
      3 N         142.5710  143.3408  160.7931 N.ar    1  UNL1       -0.2287
      4 C         142.8010  142.4227  161.9569 C.ar    1  UNL1        0.1345
      5 C         141.9247  142.5164  163.1706 C.ar    1  UNL1        0.0610
      6 S         141.9116  141.7511  164.4606 S.2     1  UNL1       -0.0841
      7 C         140.7972  142.2899  165.3079 C.ar    1  UNL1        0.0296
      8 C         140.1215  143.3881  164.5415 C.ar    1  UNL1        0.0073
      9 C         140.8183  143.5281  163.2206 C.ar    1  UNL1        0.0151
     10 C         140.4240  141.8139  166.6805 C.ar    1  UNL1        0.0082
     11 C         139.8138  140.4559  166.8633 C.ar    1  UNL1        0.0006
     12 C         139.4406  139.9800  168.2361 C.ar    1  UNL1        0.0023
     13 C         139.6775  140.8621  169.4259 C.ar    1  UNL1        0.0296
     14 C         140.2878  142.2201  169.2431 C.ar    1  UNL1        0.1402
     15 F         140.5248  143.1022  170.4329 F       1  UNL1       -0.2042
     16 C         140.6610  142.6960  167.8704 C.ar    1  UNL1        0.0301
     17 N         138.0741  145.0169  162.3775 N.am    1  UNL1       -0.3253
     18 C         139.4820  145.4579  162.1068 C.2     1  UNL1        0.2443
     19 O         139.7837  146.9106  161.8861 O.2     1  UNL1       -0.2703
     20 H         137.3480  145.6809  162.4103 H       1  UNL1        0.1453
     21 H         137.8762  144.0634  162.5223 H       1  UNL1        0.1453
     22 N         143.9074  141.4110  161.9068 N.pl3   1  UNL1       -0.3180
     23 H         144.7971  141.6365  162.2630 H       1  UNL1        0.1482
     24 C         143.6582  140.0559  161.3142 C.3     1  UNL1        0.0861
     25 C         143.2995  139.9262  159.8635 C.3     1  UNL1        0.0224
     26 C         143.0503  138.5710  159.2707 C.3     1  UNL1        0.0188
     27 C         143.1598  137.3455  160.1287 C.3     1  UNL1        0.0687
     28 N         143.5185  137.4752  161.5794 N.3     1  UNL1       -0.2961
     29 C         143.7677  138.8303  162.1721 C.3     1  UNL1        0.0883
     30 H         144.3689  136.9304  161.7222 H       1  UNL1        0.1233
@<TRIPOS>BOND
     1    17    18   am
     2    18    19    2
     3    18     1    1
     4     1     2   ar
     5     2     3   ar
     6     3     4   ar
     7     4    22    1
     8    24    22    1
     9    24    25    1
    10    25    26    1
    11    26    27    1
    12    27    28    1
    13    28    29    1
    14     4     5   ar
    15     5     6   ar
    16     6     7   ar
    17     7    10    1
    18    10    11   ar
    19    11    12   ar
    20    12    13   ar
    21    13    14   ar
    22    14    15    1
    23    14    16   ar
    24     7     8   ar
    25     8     9   ar
    26     9     1   ar
    27    29    24    1
    28     9     5   ar
    29    16    10   ar
    30    17    20    1
    31    17    21    1
    32    22    23    1
    33    28    30    1
