@<TRIPOS>MOLECULE
*****
 46 49 0 0 0
SMALL
GASTEIGER

@<TRIPOS>ATOM
      1 C         142.1386  142.3166  162.3291 C.3     1  UNL1        0.0779
      2 C         142.4023  142.3550  163.8053 C.ar    1  UNL1        0.0373
      3 C         141.3102  142.0040  164.7717 C.ar    1  UNL1        0.0023
      4 C         141.5740  142.0424  166.2479 C.ar    1  UNL1        0.0183
      5 C         140.4819  141.6913  167.2143 C.ar    1  UNL1        0.0118
      6 C         140.7457  141.7297  168.6904 C.ar    1  UNL1        0.0685
      7 C         142.1016  142.1192  169.2001 C.ar    1  UNL1        0.0118
      8 C         143.1937  142.4702  168.2337 C.ar    1  UNL1        0.0199
      9 C         142.9299  142.4318  166.7576 C.ar    1  UNL1        0.0844
     10 N         144.0221  142.7829  165.7911 N.ar    1  UNL1       -0.2119
     11 C         143.7583  142.7445  164.3150 C.ar    1  UNL1        0.2211
     12 C         139.6535  141.3786  169.6569 C.1     1  UNL1        0.1004
     13 N         138.5614  141.0276  170.6233 N.1     1  UNL1       -0.1908
     14 O         144.8504  143.0955  163.3485 O.3     1  UNL1       -0.4563
     15 C         145.7454  142.0212  162.8056 C.3     1  UNL1        0.2542
     16 C         143.3099  139.7305  159.5560 C.ar    1  UNL1        0.2271
     17 C         143.1361  141.0121  160.3160 C.ar    1  UNL1        0.0540
     18 C         142.3123  141.0351  161.5693 C.ar    1  UNL1       -0.0064
     19 C         141.6624  139.7765  162.0628 C.ar    1  UNL1        0.0540
     20 C         141.8362  138.4949  161.3030 C.ar    1  UNL1        0.2270
     21 N         142.6599  138.4719  160.0495 N.ar    1  UNL1       -0.1767
     22 O         144.1336  139.7076  158.3027 O.3     1  UNL1       -0.4602
     23 C         145.4358  141.0436  156.4945 C.3     1  UNL1        0.0512
     24 C         144.3435  140.9698  157.5200 C.3     1  UNL1        0.2072
     25 O         141.1862  137.2364  161.7965 O.3     1  UNL1       -0.4640
     26 C         140.4093  137.2469  163.0796 C.3     1  UNL1        0.1678
     27 C         141.0940  136.9205  164.3736 C.3     1  UNL1        0.0473
     28 C         138.9476  137.5837  163.0685 C.3     1  UNL1        0.0473
     29 C         141.7010  143.5598  161.6129 C.3     1  UNL1        0.1161
     30 O         143.1213  143.8289  161.2123 O.3     1  UNL1       -0.3820
     31 H         143.4254  144.6494  161.6310 H       1  UNL1        0.2107
     32 C         140.2807  143.2907  162.0134 C.ar    1  UNL1        0.0117
     33 C         139.6414  144.1025  163.1007 C.ar    1  UNL1        0.0559
     34 C         138.2212  143.8334  163.5012 C.ar    1  UNL1        0.2272
     35 N         137.4402  142.7525  162.8145 N.ar    1  UNL1       -0.1767
     36 C         138.0795  141.9407  161.7272 C.ar    1  UNL1        0.2272
     37 C         139.4998  142.2098  161.3267 C.ar    1  UNL1        0.0559
     38 O         137.5819  144.6453  164.5885 O.3     1  UNL1       -0.4561
     39 C         138.3823  145.0519  165.7902 C.3     1  UNL1        0.2542
     40 O         137.2986  140.8597  161.0404 O.3     1  UNL1       -0.4561
     41 C         137.6740  139.6850  160.1866 C.3     1  UNL1        0.2542
     42 C         141.2635  144.8030  160.8966 C.3     1  UNL1        0.0491
     43 C         141.5904  144.9862  159.4442 C.3     1  UNL1        0.0750
     44 N         140.4964  144.9493  158.4187 N.3     1  UNL1       -0.2702
     45 C         140.2159  146.1591  157.5774 C.3     1  UNL1        0.0897
     46 C         139.6828  143.7027  158.2345 C.3     1  UNL1        0.0897
@<TRIPOS>BOND
     1    23    24    1
     2    24    22    1
     3    22    16    1
     4    16    17   ar
     5    17    18   ar
     6     1    18    1
     7     1     2    1
     8     2     3   ar
     9     3     4   ar
    10     4     5   ar
    11     5     6   ar
    12     6    12    1
    13    12    13    3
    14     6     7   ar
    15     7     8   ar
    16     8     9   ar
    17     9    10   ar
    18    10    11   ar
    19    11    14    1
    20    14    15    1
    21     1    29    1
    22    29    30    1
    23    29    42    1
    24    42    43    1
    25    43    44    1
    26    44    45    1
    27    44    46    1
    28    29    32    1
    29    32    33   ar
    30    33    34   ar
    31    34    38    1
    32    38    39    1
    33    34    35   ar
    34    35    36   ar
    35    36    40    1
    36    40    41    1
    37    36    37   ar
    38    18    19   ar
    39    19    20   ar
    40    20    25    1
    41    25    26    1
    42    26    27    1
    43    26    28    1
    44    20    21   ar
    45    21    16   ar
    46    11     2   ar
    47    37    32   ar
    48     9     4   ar
    49    30    31    1
@<TRIPOS>MOLECULE
*****
 46 49 0 0 0
SMALL
GASTEIGER

@<TRIPOS>ATOM
      1 C         140.3742  140.3976  162.5261 C.3     1  UNL1        0.0779
      2 C         140.2337  140.2795  164.0149 C.ar    1  UNL1        0.0373
      3 C         140.3513  141.5003  164.8785 C.ar    1  UNL1        0.0023
      4 C         140.2108  141.3823  166.3672 C.ar    1  UNL1        0.0183
      5 C         140.3283  142.6031  167.2308 C.ar    1  UNL1        0.0118
      6 C         140.1879  142.4850  168.7195 C.ar    1  UNL1        0.0685
      7 C         139.9298  141.1461  169.3446 C.ar    1  UNL1        0.0118
      8 C         139.8122  139.9253  168.4811 C.ar    1  UNL1        0.0199
      9 C         139.9527  140.0434  166.9924 C.ar    1  UNL1        0.0844
     10 N         139.8351  138.8226  166.1287 N.ar    1  UNL1       -0.2119
     11 C         139.9756  138.9407  164.6400 C.ar    1  UNL1        0.2211
     12 C         140.3054  143.7058  169.5832 C.1     1  UNL1        0.1004
     13 N         140.4230  144.9266  170.4468 N.1     1  UNL1       -0.1908
     14 O         139.8580  137.7198  163.7764 O.3     1  UNL1       -0.4563
     15 C         141.0840  136.9326  163.4197 C.3     1  UNL1        0.2542
     16 C         144.2666  140.7492  161.8368 C.ar    1  UNL1        0.2271
     17 C         142.9204  140.9114  162.4784 C.ar    1  UNL1        0.0540
     18 C         141.7203  140.2354  161.8846 C.ar    1  UNL1       -0.0064
     19 C         141.8663  139.3970  160.6493 C.ar    1  UNL1        0.0540
     20 C         143.2124  139.2348  160.0078 C.ar    1  UNL1        0.2270
     21 N         144.4126  139.9109  160.6016 N.ar    1  UNL1       -0.1767
     22 O         145.4667  141.4253  162.4306 O.3     1  UNL1       -0.4602
     23 C         145.0311  142.8250  164.5756 C.3     1  UNL1        0.0512
     24 C         145.5748  141.5916  163.9174 C.3     1  UNL1        0.2072
     25 O         143.3584  138.3965  158.7725 O.3     1  UNL1       -0.4640
     26 C         143.0879  138.9948  157.4238 C.3     1  UNL1        0.1678
     27 C         142.9297  140.4795  157.2800 C.3     1  UNL1        0.0473
     28 C         142.9755  138.1084  156.2190 C.3     1  UNL1        0.0473
     29 C         139.1685  140.6779  161.6789 C.3     1  UNL1        0.1161
     30 O         138.7935  139.2265  161.7324 O.3     1  UNL1       -0.3820
     31 H         138.8442  138.8464  160.8414 H       1  UNL1        0.2107
     32 C         139.5434  142.1293  161.6254 C.ar    1  UNL1        0.0117
     33 C         139.1057  143.0578  162.7191 C.ar    1  UNL1        0.0559
     34 C         139.4807  144.5092  162.6657 C.ar    1  UNL1        0.2272
     35 N         140.2934  145.0320  161.5185 N.ar    1  UNL1       -0.1767
     36 C         140.7311  144.1035  160.4248 C.ar    1  UNL1        0.2272
     37 C         140.3561  142.6521  160.4783 C.ar    1  UNL1        0.0559
     38 O         139.0430  145.4377  163.7594 O.3     1  UNL1       -0.4561
     39 C         138.7189  144.8944  165.1195 C.3     1  UNL1        0.2542
     40 O         141.5439  144.6264  159.2775 O.3     1  UNL1       -0.4561
     41 C         141.2275  145.4585  158.0703 C.3     1  UNL1        0.2542
     42 C         137.9628  140.9582  160.8317 C.3     1  UNL1        0.0491
     43 C         137.6007  140.0287  159.7115 C.3     1  UNL1        0.0750
     44 N         138.1863  140.2357  158.3462 N.3     1  UNL1       -0.2702
     45 C         139.3340  139.3868  157.8857 C.3     1  UNL1        0.0897
     46 C         137.6243  141.2917  157.4413 C.3     1  UNL1        0.0897
@<TRIPOS>BOND
     1    23    24    1
     2    24    22    1
     3    22    16    1
     4    16    17   ar
     5    17    18   ar
     6     1    18    1
     7     1     2    1
     8     2     3   ar
     9     3     4   ar
    10     4     5   ar
    11     5     6   ar
    12     6    12    1
    13    12    13    3
    14     6     7   ar
    15     7     8   ar
    16     8     9   ar
    17     9    10   ar
    18    10    11   ar
    19    11    14    1
    20    14    15    1
    21     1    29    1
    22    29    30    1
    23    29    42    1
    24    42    43    1
    25    43    44    1
    26    44    45    1
    27    44    46    1
    28    29    32    1
    29    32    33   ar
    30    33    34   ar
    31    34    38    1
    32    38    39    1
    33    34    35   ar
    34    35    36   ar
    35    36    40    1
    36    40    41    1
    37    36    37   ar
    38    18    19   ar
    39    19    20   ar
    40    20    25    1
    41    25    26    1
    42    26    27    1
    43    26    28    1
    44    20    21   ar
    45    21    16   ar
    46    11     2   ar
    47    37    32   ar
    48     9     4   ar
    49    30    31    1
@<TRIPOS>MOLECULE
*****
 46 49 0 0 0
SMALL
GASTEIGER

@<TRIPOS>ATOM
      1 C         140.7453  140.1493  162.1911 C.3     1  UNL1        0.0779
      2 C         140.0898  139.8083  163.4965 C.ar    1  UNL1        0.0373
      3 C         140.4608  140.5592  164.7408 C.ar    1  UNL1        0.0023
      4 C         139.8052  140.2182  166.0462 C.ar    1  UNL1        0.0183
      5 C         140.1762  140.9692  167.2905 C.ar    1  UNL1        0.0118
      6 C         139.5206  140.6282  168.5958 C.ar    1  UNL1        0.0685
      7 C         138.4940  139.5362  168.6568 C.ar    1  UNL1        0.0118
      8 C         138.1230  138.7853  167.4125 C.ar    1  UNL1        0.0199
      9 C         138.7786  139.1263  166.1072 C.ar    1  UNL1        0.0844
     10 N         138.4076  138.3753  164.8628 N.ar    1  UNL1       -0.2119
     11 C         139.0632  138.7163  163.5575 C.ar    1  UNL1        0.2211
     12 C         139.8916  141.3791  169.8403 C.1     1  UNL1        0.1004
     13 N         140.2626  142.1300  171.0846 N.1     1  UNL1       -0.1908
     14 O         138.6922  137.9653  162.3131 O.3     1  UNL1       -0.4563
     15 C         137.5068  138.3974  161.5017 C.3     1  UNL1        0.2542
     16 C         139.1989  143.7305  161.4608 C.ar    1  UNL1        0.2271
     17 C         139.5658  142.4640  162.1761 C.ar    1  UNL1        0.0540
     18 C         140.3784  141.4157  161.4758 C.ar    1  UNL1       -0.0064
     19 C         140.8242  141.6336  160.0603 C.ar    1  UNL1        0.0540
     20 C         140.4573  142.9000  159.3450 C.ar    1  UNL1        0.2270
     21 N         139.6446  143.9485  160.0453 N.ar    1  UNL1       -0.1767
     22 O         138.3862  144.7789  162.1611 O.3     1  UNL1       -0.4602
     23 C         138.4350  144.6171  164.7537 C.3     1  UNL1        0.0512
     24 C         137.7008  144.4559  163.4556 C.3     1  UNL1        0.2072
     25 O         140.9031  143.1180  157.9294 O.3     1  UNL1       -0.4640
     26 C         142.1508  143.9017  157.6483 C.3     1  UNL1        0.1678
     27 C         143.4701  143.4285  158.1826 C.3     1  UNL1        0.0473
     28 C         142.0792  145.1586  156.8328 C.3     1  UNL1        0.0473
     29 C         141.7678  139.2239  161.6010 C.3     1  UNL1        0.1161
     30 O         140.7549  138.7388  160.6067 O.3     1  UNL1       -0.3820
     31 H         140.5705  137.7997  160.7649 H       1  UNL1        0.2107
     32 C         142.7807  139.7090  162.5954 C.ar    1  UNL1        0.0117
     33 C         143.3273  141.1019  162.4904 C.ar    1  UNL1        0.0559
     34 C         144.3402  141.5870  163.4847 C.ar    1  UNL1        0.2272
     35 N         144.8065  140.6792  164.5841 N.ar    1  UNL1       -0.1767
     36 C         144.2598  139.2864  164.6890 C.ar    1  UNL1        0.2272
     37 C         143.2470  138.8012  163.6947 C.ar    1  UNL1        0.0559
     38 O         144.8869  142.9799  163.3797 O.3     1  UNL1       -0.4561
     39 C         144.3115  143.9379  162.3791 C.3     1  UNL1        0.2542
     40 O         144.7261  138.3785  165.7884 O.3     1  UNL1       -0.4561
     41 C         144.0356  137.6590  166.9088 C.3     1  UNL1        0.2542
     42 C         142.7903  138.2985  161.0110 C.3     1  UNL1        0.0491
     43 C         143.6222  138.7451  159.8455 C.3     1  UNL1        0.0750
     44 N         143.0840  138.6261  158.4505 N.3     1  UNL1       -0.2702
     45 C         142.9729  139.8448  157.5830 C.3     1  UNL1        0.0897
     46 C         142.6569  137.2886  157.9229 C.3     1  UNL1        0.0897
@<TRIPOS>BOND
     1    23    24    1
     2    24    22    1
     3    22    16    1
     4    16    17   ar
     5    17    18   ar
     6     1    18    1
     7     1     2    1
     8     2     3   ar
     9     3     4   ar
    10     4     5   ar
    11     5     6   ar
    12     6    12    1
    13    12    13    3
    14     6     7   ar
    15     7     8   ar
    16     8     9   ar
    17     9    10   ar
    18    10    11   ar
    19    11    14    1
    20    14    15    1
    21     1    29    1
    22    29    30    1
    23    29    42    1
    24    42    43    1
    25    43    44    1
    26    44    45    1
    27    44    46    1
    28    29    32    1
    29    32    33   ar
    30    33    34   ar
    31    34    38    1
    32    38    39    1
    33    34    35   ar
    34    35    36   ar
    35    36    40    1
    36    40    41    1
    37    36    37   ar
    38    18    19   ar
    39    19    20   ar
    40    20    25    1
    41    25    26    1
    42    26    27    1
    43    26    28    1
    44    20    21   ar
    45    21    16   ar
    46    11     2   ar
    47    37    32   ar
    48     9     4   ar
    49    30    31    1
@<TRIPOS>MOLECULE
*****
 46 49 0 0 0
SMALL
GASTEIGER

@<TRIPOS>ATOM
      1 C         140.4832  140.4630  162.4645 C.3     1  UNL1        0.0779
      2 C         140.3007  140.3255  163.9471 C.ar    1  UNL1        0.0373
      3 C         140.4213  141.5302  164.8325 C.ar    1  UNL1        0.0023
      4 C         140.2388  141.3927  166.3150 C.ar    1  UNL1        0.0183
      5 C         140.3595  142.5974  167.2005 C.ar    1  UNL1        0.0118
      6 C         140.1770  142.4598  168.6830 C.ar    1  UNL1        0.0685
      7 C         139.8738  141.1176  169.2800 C.ar    1  UNL1        0.0118
      8 C         139.7532  139.9129  168.3945 C.ar    1  UNL1        0.0199
      9 C         139.9357  140.0504  166.9121 C.ar    1  UNL1        0.0844
     10 N         139.8150  138.8457  166.0265 N.ar    1  UNL1       -0.2119
     11 C         139.9975  138.9832  164.5441 C.ar    1  UNL1        0.2211
     12 C         140.2976  143.6646  169.5685 C.1     1  UNL1        0.1004
     13 N         140.4183  144.8693  170.4540 N.1     1  UNL1       -0.1908
     14 O         139.8769  137.7785  163.6585 O.3     1  UNL1       -0.4563
     15 C         141.0788  136.9224  163.3890 C.3     1  UNL1        0.2542
     16 C         144.4048  140.6997  161.9036 C.ar    1  UNL1        0.2271
     17 C         143.0463  140.8843  162.5124 C.ar    1  UNL1        0.0540
     18 C         141.8415  140.2783  161.8557 C.ar    1  UNL1       -0.0064
     19 C         141.9951  139.4876  160.5903 C.ar    1  UNL1        0.0540
     20 C         143.3535  139.3030  159.9816 C.ar    1  UNL1        0.2270
     21 N         144.5584  139.9090  160.6382 N.ar    1  UNL1       -0.1767
     22 O         145.6096  141.3057  162.5602 O.3     1  UNL1       -0.4602
     23 C         144.8767  142.7649  164.5810 C.3     1  UNL1        0.0512
     24 C         145.6049  141.5719  164.0364 C.3     1  UNL1        0.2072
     25 O         143.5071  138.5123  158.7162 O.3     1  UNL1       -0.4640
     26 C         143.1259  139.1221  157.3998 C.3     1  UNL1        0.1678
     27 C         143.0486  140.6134  157.2584 C.3     1  UNL1        0.0473
     28 C         142.8218  138.2406  156.2248 C.3     1  UNL1        0.0473
     29 C         139.3072  140.7852  161.5908 C.3     1  UNL1        0.1161
     30 O         138.9834  139.3242  161.4879 O.3     1  UNL1       -0.3820
     31 H         139.0878  139.0339  160.5683 H       1  UNL1        0.2107
     32 C         139.6311  142.2462  161.6937 C.ar    1  UNL1        0.0117
     33 C         140.5151  142.8925  160.6687 C.ar    1  UNL1        0.0559
     34 C         140.8390  144.3535  160.7716 C.ar    1  UNL1        0.2272
     35 N         140.2788  145.1682  161.8996 N.ar    1  UNL1       -0.1767
     36 C         139.3947  144.5220  162.9246 C.ar    1  UNL1        0.2272
     37 C         139.0709  143.0610  162.8217 C.ar    1  UNL1        0.0559
     38 O         141.7231  144.9998  159.7465 O.3     1  UNL1       -0.4561
     39 C         141.9720  144.3179  158.4339 C.3     1  UNL1        0.2542
     40 O         138.8344  145.3367  164.0526 O.3     1  UNL1       -0.4561
     41 C         138.4825  145.0373  165.4797 C.3     1  UNL1        0.2542
     42 C         138.1313  141.1074  160.7171 C.3     1  UNL1        0.0491
     43 C         137.8367  140.2615  159.5140 C.3     1  UNL1        0.0750
     44 N         138.8256  140.1879  158.3885 N.3     1  UNL1       -0.2702
     45 C         139.4997  138.8873  158.0663 C.3     1  UNL1        0.0897
     46 C         139.1402  141.4150  157.5852 C.3     1  UNL1        0.0897
@<TRIPOS>BOND
     1    23    24    1
     2    24    22    1
     3    22    16    1
     4    16    17   ar
     5    17    18   ar
     6     1    18    1
     7     1     2    1
     8     2     3   ar
     9     3     4   ar
    10     4     5   ar
    11     5     6   ar
    12     6    12    1
    13    12    13    3
    14     6     7   ar
    15     7     8   ar
    16     8     9   ar
    17     9    10   ar
    18    10    11   ar
    19    11    14    1
    20    14    15    1
    21     1    29    1
    22    29    30    1
    23    29    42    1
    24    42    43    1
    25    43    44    1
    26    44    45    1
    27    44    46    1
    28    29    32    1
    29    32    33   ar
    30    33    34   ar
    31    34    38    1
    32    38    39    1
    33    34    35   ar
    34    35    36   ar
    35    36    40    1
    36    40    41    1
    37    36    37   ar
    38    18    19   ar
    39    19    20   ar
    40    20    25    1
    41    25    26    1
    42    26    27    1
    43    26    28    1
    44    20    21   ar
    45    21    16   ar
    46    11     2   ar
    47    37    32   ar
    48     9     4   ar
    49    30    31    1
@<TRIPOS>MOLECULE
*****
 46 49 0 0 0
SMALL
GASTEIGER

@<TRIPOS>ATOM
      1 C         142.0281  141.5284  162.5963 C.3     1  UNL1        0.0779
      2 C         142.3351  141.7138  164.0529 C.ar    1  UNL1        0.0373
      3 C         141.4744  141.0561  165.0904 C.ar    1  UNL1        0.0023
      4 C         141.7814  141.2415  166.5470 C.ar    1  UNL1        0.0183
      5 C         140.9207  140.5838  167.5845 C.ar    1  UNL1        0.0118
      6 C         141.2277  140.7692  169.0409 C.ar    1  UNL1        0.0685
      7 C         142.3955  141.6123  169.4599 C.ar    1  UNL1        0.0118
      8 C         143.2562  142.2700  168.4224 C.ar    1  UNL1        0.0199
      9 C         142.9492  142.0846  166.9659 C.ar    1  UNL1        0.0844
     10 N         143.8099  142.7424  165.9283 N.ar    1  UNL1       -0.2119
     11 C         143.5029  142.5570  164.4718 C.ar    1  UNL1        0.2211
     12 C         140.3670  140.1114  170.0785 C.1     1  UNL1        0.1004
     13 N         139.5063  139.4537  171.1161 N.1     1  UNL1       -0.1908
     14 O         144.3636  143.2147  163.4342 O.3     1  UNL1       -0.4563
     15 C         144.0355  144.5975  162.9543 C.3     1  UNL1        0.2542
     16 C         139.1886  144.1902  161.8207 C.ar    1  UNL1        0.2271
     17 C         140.0178  143.1734  162.5477 C.ar    1  UNL1        0.0540
     18 C         141.1989  142.5452  161.8693 C.ar    1  UNL1       -0.0064
     19 C         141.5509  142.9337  160.4639 C.ar    1  UNL1        0.0540
     20 C         140.7217  143.9505  159.7369 C.ar    1  UNL1        0.2270
     21 N         139.5405  144.5787  160.4152 N.ar    1  UNL1       -0.1767
     22 O         138.0074  144.8184  162.4991 O.3     1  UNL1       -0.4602
     23 C         138.1619  144.6654  165.0880 C.3     1  UNL1        0.0512
     24 C         137.5070  144.2636  163.7997 C.3     1  UNL1        0.2072
     25 O         141.0736  144.3390  158.3314 O.3     1  UNL1       -0.4640
     26 C         141.7458  143.3500  157.4259 C.3     1  UNL1        0.1678
     27 C         143.2311  143.4068  157.2240 C.3     1  UNL1        0.0473
     28 C         140.9328  142.3041  156.7222 C.3     1  UNL1        0.0473
     29 C         142.5504  140.3263  161.8669 C.3     1  UNL1        0.1161
     30 O         143.9299  140.9150  161.8843 O.3     1  UNL1       -0.3820
     31 H         144.2135  141.1012  160.9755 H       1  UNL1        0.2107
     32 C         141.1709  139.7376  161.8495 C.ar    1  UNL1        0.0117
     33 C         140.2832  139.9418  160.6577 C.ar    1  UNL1        0.0559
     34 C         138.9037  139.3531  160.6403 C.ar    1  UNL1        0.2272
     35 N         138.4118  138.5601  161.8147 N.ar    1  UNL1       -0.1767
     36 C         139.2995  138.3558  163.0064 C.ar    1  UNL1        0.2272
     37 C         140.6790  138.9445  163.0238 C.ar    1  UNL1        0.0559
     38 O         138.0160  139.5574  159.4485 O.3     1  UNL1       -0.4561
     39 C         138.1121  140.8237  158.6501 C.3     1  UNL1        0.2542
     40 O         138.8076  137.5627  164.1809 O.3     1  UNL1       -0.4561
     41 C         138.5820  137.8777  165.6299 C.3     1  UNL1        0.2542
     42 C         143.0726  139.1241  161.1374 C.3     1  UNL1        0.0491
     43 C         143.8933  139.2992  159.8942 C.3     1  UNL1        0.0750
     44 N         143.3319  138.8983  158.5622 N.3     1  UNL1       -0.2702
     45 C         142.5483  137.6261  158.4308 C.3     1  UNL1        0.0897
     46 C         143.5540  139.7697  157.3617 C.3     1  UNL1        0.0897
@<TRIPOS>BOND
     1    23    24    1
     2    24    22    1
     3    22    16    1
     4    16    17   ar
     5    17    18   ar
     6     1    18    1
     7     1     2    1
     8     2     3   ar
     9     3     4   ar
    10     4     5   ar
    11     5     6   ar
    12     6    12    1
    13    12    13    3
    14     6     7   ar
    15     7     8   ar
    16     8     9   ar
    17     9    10   ar
    18    10    11   ar
    19    11    14    1
    20    14    15    1
    21     1    29    1
    22    29    30    1
    23    29    42    1
    24    42    43    1
    25    43    44    1
    26    44    45    1
    27    44    46    1
    28    29    32    1
    29    32    33   ar
    30    33    34   ar
    31    34    38    1
    32    38    39    1
    33    34    35   ar
    34    35    36   ar
    35    36    40    1
    36    40    41    1
    37    36    37   ar
    38    18    19   ar
    39    19    20   ar
    40    20    25    1
    41    25    26    1
    42    26    27    1
    43    26    28    1
    44    20    21   ar
    45    21    16   ar
    46    11     2   ar
    47    37    32   ar
    48     9     4   ar
    49    30    31    1
@<TRIPOS>MOLECULE
*****
 46 49 0 0 0
SMALL
GASTEIGER

@<TRIPOS>ATOM
      1 C         140.7572  139.9042  161.9443 C.3     1  UNL1        0.0779
      2 C         140.2043  139.6943  163.3229 C.ar    1  UNL1        0.0373
      3 C         140.6719  140.5564  164.4577 C.ar    1  UNL1        0.0023
      4 C         140.1190  140.3465  165.8363 C.ar    1  UNL1        0.0183
      5 C         140.5865  141.2087  166.9712 C.ar    1  UNL1        0.0118
      6 C         140.0337  140.9987  168.3497 C.ar    1  UNL1        0.0685
      7 C         139.0133  139.9266  168.5932 C.ar    1  UNL1        0.0118
      8 C         138.5457  139.0644  167.4583 C.ar    1  UNL1        0.0199
      9 C         139.0986  139.2744  166.0799 C.ar    1  UNL1        0.0844
     10 N         138.6311  138.4122  164.9449 N.ar    1  UNL1       -0.2119
     11 C         139.1839  138.6221  163.5664 C.ar    1  UNL1        0.2211
     12 C         140.5012  141.8609  169.4846 C.1     1  UNL1        0.1004
     13 N         140.9687  142.7231  170.6196 N.1     1  UNL1       -0.1908
     14 O         138.7164  137.7600  162.4314 O.3     1  UNL1       -0.4563
     15 C         137.5362  138.1807  161.6068 C.3     1  UNL1        0.2542
     16 C         139.6979  142.0549  158.7817 C.ar    1  UNL1        0.2271
     17 C         140.1831  140.9079  159.6178 C.ar    1  UNL1        0.0540
     18 C         140.2720  141.0512  161.1083 C.ar    1  UNL1       -0.0064
     19 C         139.8756  142.3414  161.7627 C.ar    1  UNL1        0.0540
     20 C         139.3904  143.4883  160.9267 C.ar    1  UNL1        0.2270
     21 N         139.3015  143.3451  159.4361 N.ar    1  UNL1       -0.1767
     22 O         139.6090  141.9117  157.2912 O.3     1  UNL1       -0.4602
     23 C         137.1100  141.2893  156.9479 C.3     1  UNL1        0.0512
     24 C         138.5628  141.0247  156.6841 C.3     1  UNL1        0.2072
     25 O         138.9940  144.7785  161.5811 O.3     1  UNL1       -0.4640
     26 C         139.5332  145.1287  162.9364 C.3     1  UNL1        0.1678
     27 C         140.8948  145.7447  163.0656 C.3     1  UNL1        0.0473
     28 C         138.7109  144.8629  164.1623 C.3     1  UNL1        0.0473
     29 C         141.7953  138.9671  161.4019 C.3     1  UNL1        0.1161
     30 O         140.7684  138.3532  160.4971 O.3     1  UNL1       -0.3820
     31 H         140.6288  137.4267  160.7481 H       1  UNL1        0.2107
     32 C         142.8222  139.5810  162.3066 C.ar    1  UNL1        0.0117
     33 C         143.3275  138.8174  163.4947 C.ar    1  UNL1        0.0559
     34 C         144.3544  139.4313  164.3994 C.ar    1  UNL1        0.2272
     35 N         144.8760  140.8088  164.1161 N.ar    1  UNL1       -0.1767
     36 C         144.3708  141.5724  162.9281 C.ar    1  UNL1        0.2272
     37 C         143.3439  140.9585  162.0233 C.ar    1  UNL1        0.0559
     38 O         144.8597  138.6676  165.5876 O.3     1  UNL1       -0.4561
     39 C         143.8895  138.0206  166.5311 C.3     1  UNL1        0.2542
     40 O         144.8924  142.9500  162.6447 O.3     1  UNL1       -0.4561
     41 C         144.2879  144.3221  162.6865 C.3     1  UNL1        0.2542
     42 C         142.8334  138.0301  160.8594 C.3     1  UNL1        0.0491
     43 C         142.7259  137.5257  159.4509 C.3     1  UNL1        0.0750
     44 N         143.0633  138.4301  158.3026 N.3     1  UNL1       -0.2702
     45 C         143.6280  139.7949  158.5637 C.3     1  UNL1        0.0897
     46 C         142.8358  137.9695  156.8934 C.3     1  UNL1        0.0897
@<TRIPOS>BOND
     1    23    24    1
     2    24    22    1
     3    22    16    1
     4    16    17   ar
     5    17    18   ar
     6     1    18    1
     7     1     2    1
     8     2     3   ar
     9     3     4   ar
    10     4     5   ar
    11     5     6   ar
    12     6    12    1
    13    12    13    3
    14     6     7   ar
    15     7     8   ar
    16     8     9   ar
    17     9    10   ar
    18    10    11   ar
    19    11    14    1
    20    14    15    1
    21     1    29    1
    22    29    30    1
    23    29    42    1
    24    42    43    1
    25    43    44    1
    26    44    45    1
    27    44    46    1
    28    29    32    1
    29    32    33   ar
    30    33    34   ar
    31    34    38    1
    32    38    39    1
    33    34    35   ar
    34    35    36   ar
    35    36    40    1
    36    40    41    1
    37    36    37   ar
    38    18    19   ar
    39    19    20   ar
    40    20    25    1
    41    25    26    1
    42    26    27    1
    43    26    28    1
    44    20    21   ar
    45    21    16   ar
    46    11     2   ar
    47    37    32   ar
    48     9     4   ar
    49    30    31    1
@<TRIPOS>MOLECULE
*****
 46 49 0 0 0
SMALL
GASTEIGER

@<TRIPOS>ATOM
      1 C         140.6947  140.0088  162.0069 C.3     1  UNL1        0.0779
      2 C         140.1416  139.7722  163.3810 C.ar    1  UNL1        0.0373
      3 C         140.6118  140.6096  164.5332 C.ar    1  UNL1        0.0023
      4 C         140.0587  140.3729  165.9073 C.ar    1  UNL1        0.0183
      5 C         140.5289  141.2103  167.0596 C.ar    1  UNL1        0.0118
      6 C         139.9757  140.9736  168.4336 C.ar    1  UNL1        0.0685
      7 C         138.9524  139.8996  168.6554 C.ar    1  UNL1        0.0118
      8 C         138.4821  139.0623  167.5031 C.ar    1  UNL1        0.0199
      9 C         139.0353  139.2989  166.1291 C.ar    1  UNL1        0.0844
     10 N         138.5651  138.4615  164.9768 N.ar    1  UNL1       -0.2119
     11 C         139.1182  138.6982  163.6028 C.ar    1  UNL1        0.2211
     12 C         140.4460  141.8110  169.5859 C.1     1  UNL1        0.1004
     13 N         140.9162  142.6483  170.7382 N.1     1  UNL1       -0.1908
     14 O         138.6480  137.8608  162.4505 O.3     1  UNL1       -0.4563
     15 C         137.5158  138.3375  161.5898 C.3     1  UNL1        0.2542
     16 C         139.3224  143.6171  161.0866 C.ar    1  UNL1        0.2271
     17 C         139.7928  142.4425  161.8924 C.ar    1  UNL1        0.0540
     18 C         140.2244  141.1833  161.2011 C.ar    1  UNL1       -0.0064
     19 C         140.1858  141.0985  159.7040 C.ar    1  UNL1        0.0540
     20 C         139.7155  142.2730  158.8982 C.ar    1  UNL1        0.2270
     21 N         139.2838  143.5323  159.5895 N.ar    1  UNL1       -0.1767
     22 O         138.8908  144.8763  161.7779 O.3     1  UNL1       -0.4602
     23 C         138.9840  144.8533  164.3742 C.3     1  UNL1        0.0512
     24 C         139.5523  145.2938  163.0577 C.3     1  UNL1        0.2072
     25 O         139.6768  142.1882  157.4011 O.3     1  UNL1       -0.4640
     26 C         138.7918  143.1140  156.6200 C.3     1  UNL1        0.1678
     27 C         139.3656  144.3518  155.9967 C.3     1  UNL1        0.0473
     28 C         137.3332  142.8019  156.4624 C.3     1  UNL1        0.0473
     29 C         141.7182  139.0709  161.4387 C.3     1  UNL1        0.1161
     30 O         140.6720  138.4687  160.5483 O.3     1  UNL1       -0.3820
     31 H         140.5325  137.5410  160.7951 H       1  UNL1        0.2107
     32 C         142.7644  139.6732  162.3290 C.ar    1  UNL1        0.0117
     33 C         143.2975  138.8931  163.4940 C.ar    1  UNL1        0.0559
     34 C         144.3437  139.4953  164.3843 C.ar    1  UNL1        0.2272
     35 N         144.8569  140.8778  164.1096 N.ar    1  UNL1       -0.1767
     36 C         144.3239  141.6579  162.9447 C.ar    1  UNL1        0.2272
     37 C         143.2776  141.0556  162.0543 C.ar    1  UNL1        0.0559
     38 O         144.8767  138.7151  165.5493 O.3     1  UNL1       -0.4561
     39 C         143.9294  138.0366  166.4939 C.3     1  UNL1        0.2542
     40 O         144.8371  143.0404  162.6700 O.3     1  UNL1       -0.4561
     41 C         144.2345  144.4114  162.7543 C.3     1  UNL1        0.2542
     42 C         142.7417  138.1330  160.8704 C.3     1  UNL1        0.0491
     43 C         142.7389  137.8191  159.4037 C.3     1  UNL1        0.0750
     44 N         142.7756  138.9318  158.3985 N.3     1  UNL1       -0.2702
     45 C         141.8404  138.9144  157.2259 C.3     1  UNL1        0.0897
     46 C         143.7476  140.0619  158.5658 C.3     1  UNL1        0.0897
@<TRIPOS>BOND
     1    23    24    1
     2    24    22    1
     3    22    16    1
     4    16    17   ar
     5    17    18   ar
     6     1    18    1
     7     1     2    1
     8     2     3   ar
     9     3     4   ar
    10     4     5   ar
    11     5     6   ar
    12     6    12    1
    13    12    13    3
    14     6     7   ar
    15     7     8   ar
    16     8     9   ar
    17     9    10   ar
    18    10    11   ar
    19    11    14    1
    20    14    15    1
    21     1    29    1
    22    29    30    1
    23    29    42    1
    24    42    43    1
    25    43    44    1
    26    44    45    1
    27    44    46    1
    28    29    32    1
    29    32    33   ar
    30    33    34   ar
    31    34    38    1
    32    38    39    1
    33    34    35   ar
    34    35    36   ar
    35    36    40    1
    36    40    41    1
    37    36    37   ar
    38    18    19   ar
    39    19    20   ar
    40    20    25    1
    41    25    26    1
    42    26    27    1
    43    26    28    1
    44    20    21   ar
    45    21    16   ar
    46    11     2   ar
    47    37    32   ar
    48     9     4   ar
    49    30    31    1
@<TRIPOS>MOLECULE
*****
 46 49 0 0 0
SMALL
GASTEIGER

@<TRIPOS>ATOM
      1 C         141.9363  142.4374  161.5008 C.3     1  UNL1        0.0779
      2 C         141.8722  141.8897  162.8958 C.ar    1  UNL1        0.0373
      3 C         140.6369  141.1816  163.3675 C.ar    1  UNL1        0.0023
      4 C         140.5728  140.6339  164.7625 C.ar    1  UNL1        0.0183
      5 C         139.3375  139.9258  165.2342 C.ar    1  UNL1        0.0118
      6 C         139.2735  139.3781  166.6292 C.ar    1  UNL1        0.0685
      7 C         140.4447  139.5386  167.5524 C.ar    1  UNL1        0.0118
      8 C         141.6800  140.2467  167.0807 C.ar    1  UNL1        0.0199
      9 C         141.7441  140.7944  165.6858 C.ar    1  UNL1        0.0844
     10 N         142.9794  141.5025  165.2140 N.ar    1  UNL1       -0.2119
     11 C         143.0434  142.0502  163.8191 C.ar    1  UNL1        0.2211
     12 C         138.0381  138.6699  167.1009 C.1     1  UNL1        0.1004
     13 N         136.8029  137.9618  167.5727 N.1     1  UNL1       -0.1908
     14 O         144.2788  142.7584  163.3473 O.3     1  UNL1       -0.4563
     15 C         145.5164  141.9740  163.0259 C.3     1  UNL1        0.2542
     16 C         144.5562  141.7908  158.5909 C.ar    1  UNL1        0.2271
     17 C         143.7455  142.4965  159.6372 C.ar    1  UNL1        0.0540
     18 C         142.7470  141.7317  160.4545 C.ar    1  UNL1       -0.0064
     19 C         142.5592  140.2612  160.2256 C.ar    1  UNL1        0.0540
     20 C         143.3699  139.5555  159.1793 C.ar    1  UNL1        0.2270
     21 N         144.3684  140.3203  158.3619 N.ar    1  UNL1       -0.1767
     22 O         145.5547  142.5556  157.7735 O.3     1  UNL1       -0.4602
     23 C         147.5275  142.4095  156.0892 C.3     1  UNL1        0.0512
     24 C         146.2026  141.9101  156.5847 C.3     1  UNL1        0.2072
     25 O         143.1821  138.0851  158.9503 O.3     1  UNL1       -0.4640
     26 C         142.3528  137.6057  157.7959 C.3     1  UNL1        0.1678
     27 C         140.9882  138.1828  157.5620 C.3     1  UNL1        0.0473
     28 C         142.8881  136.5492  156.8755 C.3     1  UNL1        0.0473
     29 C         141.1896  143.6908  161.1521 C.3     1  UNL1        0.1161
     30 O         142.0936  144.4797  162.0524 O.3     1  UNL1       -0.3820
     31 H         141.5781  144.8457  162.7880 H       1  UNL1        0.2107
     32 C         140.2857  142.9019  160.2519 C.ar    1  UNL1        0.0117
     33 C         140.3121  143.1359  158.7705 C.ar    1  UNL1        0.0559
     34 C         139.4082  142.3470  157.8703 C.ar    1  UNL1        0.2272
     35 N         138.4777  141.3240  158.4514 N.ar    1  UNL1       -0.1767
     36 C         138.4512  141.0900  159.9328 C.ar    1  UNL1        0.2272
     37 C         139.3552  141.8789  160.8330 C.ar    1  UNL1        0.0559
     38 O         139.4347  142.5811  156.3889 O.3     1  UNL1       -0.4561
     39 C         138.1546  142.8198  155.6443 C.3     1  UNL1        0.2542
     40 O         137.5207  140.0670  160.5140 O.3     1  UNL1       -0.4561
     41 C         137.6734  138.9828  161.5393 C.3     1  UNL1        0.2542
     42 C         140.4430  144.9442  160.8035 C.3     1  UNL1        0.0491
     43 C         139.7001  145.6954  161.8682 C.3     1  UNL1        0.0750
     44 N         139.1109  144.9579  163.0340 N.3     1  UNL1       -0.2702
     45 C         137.7629  144.3122  162.9093 C.3     1  UNL1        0.0897
     46 C         139.8699  144.8663  164.3246 C.3     1  UNL1        0.0897
@<TRIPOS>BOND
     1    23    24    1
     2    24    22    1
     3    22    16    1
     4    16    17   ar
     5    17    18   ar
     6     1    18    1
     7     1     2    1
     8     2     3   ar
     9     3     4   ar
    10     4     5   ar
    11     5     6   ar
    12     6    12    1
    13    12    13    3
    14     6     7   ar
    15     7     8   ar
    16     8     9   ar
    17     9    10   ar
    18    10    11   ar
    19    11    14    1
    20    14    15    1
    21     1    29    1
    22    29    30    1
    23    29    42    1
    24    42    43    1
    25    43    44    1
    26    44    45    1
    27    44    46    1
    28    29    32    1
    29    32    33   ar
    30    33    34   ar
    31    34    38    1
    32    38    39    1
    33    34    35   ar
    34    35    36   ar
    35    36    40    1
    36    40    41    1
    37    36    37   ar
    38    18    19   ar
    39    19    20   ar
    40    20    25    1
    41    25    26    1
    42    26    27    1
    43    26    28    1
    44    20    21   ar
    45    21    16   ar
    46    11     2   ar
    47    37    32   ar
    48     9     4   ar
    49    30    31    1
@<TRIPOS>MOLECULE
*****
 46 49 0 0 0
SMALL
GASTEIGER

@<TRIPOS>ATOM
      1 C         140.6725  139.9112  161.9189 C.3     1  UNL1        0.0779
      2 C         140.1491  139.7172  163.3112 C.ar    1  UNL1        0.0373
      3 C         140.6390  140.5936  164.4255 C.ar    1  UNL1        0.0023
      4 C         140.1156  140.3996  165.8179 C.ar    1  UNL1        0.0183
      5 C         140.6055  141.2761  166.9322 C.ar    1  UNL1        0.0118
      6 C         140.0821  141.0820  168.3244 C.ar    1  UNL1        0.0685
      7 C         139.0688  140.0114  168.6023 C.ar    1  UNL1        0.0118
      8 C         138.5789  139.1350  167.4880 C.ar    1  UNL1        0.0199
      9 C         139.1023  139.3291  166.0958 C.ar    1  UNL1        0.0844
     10 N         138.6125  138.4526  164.9813 N.ar    1  UNL1       -0.2119
     11 C         139.1359  138.6466  163.5891 C.ar    1  UNL1        0.2211
     12 C         140.5720  141.9585  169.4389 C.1     1  UNL1        0.1004
     13 N         141.0618  142.8349  170.5532 N.1     1  UNL1       -0.1908
     14 O         138.6460  137.7702  162.4747 O.3     1  UNL1       -0.4563
     15 C         137.5047  138.2212  161.6122 C.3     1  UNL1        0.2542
     16 C         139.6005  142.1024  158.7885 C.ar    1  UNL1        0.2271
     17 C         140.0681  140.9377  159.6101 C.ar    1  UNL1        0.0540
     18 C         140.2050  141.0759  161.0974 C.ar    1  UNL1       -0.0064
     19 C         139.8742  142.3787  161.7632 C.ar    1  UNL1        0.0540
     20 C         139.4067  143.5433  160.9417 C.ar    1  UNL1        0.2270
     21 N         139.2698  143.4052  159.4544 N.ar    1  UNL1       -0.1767
     22 O         139.4636  141.9643  157.3012 O.3     1  UNL1       -0.4602
     23 C         140.1150  143.9811  155.7985 C.3     1  UNL1        0.0512
     24 C         140.4442  142.6432  156.3916 C.3     1  UNL1        0.2072
     25 O         139.0759  144.8462  161.6076 O.3     1  UNL1       -0.4640
     26 C         139.6357  145.1587  162.9637 C.3     1  UNL1        0.1678
     27 C         138.8079  144.9158  164.1909 C.3     1  UNL1        0.0473
     28 C         141.0231  145.7140  163.0927 C.3     1  UNL1        0.0473
     29 C         141.6635  138.9406  161.3481 C.3     1  UNL1        0.1161
     30 O         140.5881  138.3499  160.4853 O.3     1  UNL1       -0.3820
     31 H         140.4310  137.4297  160.7489 H       1  UNL1        0.2107
     32 C         142.7390  139.5312  162.2110 C.ar    1  UNL1        0.0117
     33 C         143.3571  140.8476  161.8433 C.ar    1  UNL1        0.0559
     34 C         144.4325  141.4382  162.7062 C.ar    1  UNL1        0.2272
     35 N         144.8900  140.7125  163.9366 N.ar    1  UNL1       -0.1767
     36 C         144.2719  139.3962  164.3043 C.ar    1  UNL1        0.2272
     37 C         143.1964  138.8055  163.4414 C.ar    1  UNL1        0.0559
     38 O         145.0506  142.7546  162.3385 O.3     1  UNL1       -0.4561
     39 C         144.3325  144.0338  162.6515 C.3     1  UNL1        0.2542
     40 O         144.7293  138.6704  165.5348 O.3     1  UNL1       -0.4561
     41 C         144.0268  137.8894  166.6055 C.3     1  UNL1        0.2542
     42 C         142.6545  137.9699  160.7774 C.3     1  UNL1        0.0491
     43 C         142.6427  137.6620  159.3094 C.3     1  UNL1        0.0750
     44 N         142.6682  138.7790  158.3086 N.3     1  UNL1       -0.2702
     45 C         143.6485  139.9036  158.4646 C.3     1  UNL1        0.0897
     46 C         141.7135  138.7715  157.1517 C.3     1  UNL1        0.0897
@<TRIPOS>BOND
     1    23    24    1
     2    24    22    1
     3    22    16    1
     4    16    17   ar
     5    17    18   ar
     6     1    18    1
     7     1     2    1
     8     2     3   ar
     9     3     4   ar
    10     4     5   ar
    11     5     6   ar
    12     6    12    1
    13    12    13    3
    14     6     7   ar
    15     7     8   ar
    16     8     9   ar
    17     9    10   ar
    18    10    11   ar
    19    11    14    1
    20    14    15    1
    21     1    29    1
    22    29    30    1
    23    29    42    1
    24    42    43    1
    25    43    44    1
    26    44    45    1
    27    44    46    1
    28    29    32    1
    29    32    33   ar
    30    33    34   ar
    31    34    38    1
    32    38    39    1
    33    34    35   ar
    34    35    36   ar
    35    36    40    1
    36    40    41    1
    37    36    37   ar
    38    18    19   ar
    39    19    20   ar
    40    20    25    1
    41    25    26    1
    42    26    27    1
    43    26    28    1
    44    20    21   ar
    45    21    16   ar
    46    11     2   ar
    47    37    32   ar
    48     9     4   ar
    49    30    31    1
