@<TRIPOS>MOLECULE
*****
 23 26 0 0 0
SMALL
GASTEIGER

@<TRIPOS>ATOM
      1 C         141.1846  142.3468  166.2132 C.2     1  UNL1        0.0020
      2 C         140.7844  142.6365  167.6295 C.2     1  UNL1        0.0130
      3 C         141.1465  141.6754  168.7228 C.3     1  UNL1        0.1542
      4 C         140.3842  142.9262  169.0458 C.3     1  UNL1        0.0614
      5 C         139.9840  143.2159  170.4621 C.3     1  UNL1        0.0725
      6 N         140.3461  142.2548  171.5553 N.3     1  UNL1       -0.2972
      7 C         141.1083  141.0040  171.2323 C.3     1  UNL1        0.0725
      8 C         141.5085  140.7143  169.8160 C.3     1  UNL1        0.0614
      9 O         141.9088  140.4245  168.3997 O.3     1  UNL1       -0.4785
     10 C         142.3090  140.1349  166.9834 C.ar    1  UNL1        0.1386
     11 C         143.0713  138.8840  166.6603 C.ar    1  UNL1        0.0369
     12 C         143.4715  138.5943  165.2440 C.ar    1  UNL1        0.0031
     13 C         143.1094  139.5554  164.1508 C.ar    1  UNL1        0.0002
     14 C         142.3471  140.8062  164.4738 C.ar    1  UNL1        0.0030
     15 C         141.9469  141.0960  165.8901 C.ar    1  UNL1        0.0338
     16 H         139.4718  141.9623  171.9918 H       1  UNL1        0.1233
     17 C         139.7363  146.1912  161.8402 C.3     1  UNL1        0.0310
     18 C         140.0984  145.2301  162.9335 C.ar    1  UNL1       -0.0218
     19 C         139.0336  144.3962  163.5821 C.ar    1  UNL1       -0.0043
     20 C         139.3956  143.4351  164.6753 C.ar    1  UNL1       -0.0003
     21 C         140.8225  143.3079  165.1199 C.ar    1  UNL1       -0.0001
     22 C         141.8874  144.1418  164.4713 C.ar    1  UNL1       -0.0003
     23 C         141.5254  145.1029  163.3781 C.ar    1  UNL1       -0.0043
@<TRIPOS>BOND
     1    17    18    1
     2    18    19   ar
     3    19    20   ar
     4    20    21   ar
     5    21     1    1
     6     1     2    2
     7     2     3    1
     8     3     4    1
     9     4     5    1
    10     5     6    1
    11     6     7    1
    12     7     8    1
    13     3     9    1
    14     9    10    1
    15    10    11   ar
    16    11    12   ar
    17    12    13   ar
    18    13    14   ar
    19    14    15   ar
    20    21    22   ar
    21    22    23   ar
    22    23    18   ar
    23    15     1    1
    24     8     3    1
    25    15    10   ar
    26     6    16    1
@<TRIPOS>MOLECULE
*****
 23 26 0 0 0
SMALL
GASTEIGER

@<TRIPOS>ATOM
      1 C         139.8767  142.1575  166.1006 C.2     1  UNL1        0.0020
      2 C         140.3066  142.5228  167.4905 C.2     1  UNL1        0.0130
      3 C         140.3111  141.4831  168.5717 C.3     1  UNL1        0.1542
      4 C         140.7365  142.8880  168.8803 C.3     1  UNL1        0.0614
      5 C         141.1664  143.2533  170.2702 C.3     1  UNL1        0.0725
      6 N         141.1709  142.2136  171.3514 N.3     1  UNL1       -0.2972
      7 C         140.7455  140.8087  171.0428 C.3     1  UNL1        0.0725
      8 C         140.3156  140.4435  169.6530 C.3     1  UNL1        0.0614
      9 O         139.8857  140.0782  168.2630 O.3     1  UNL1       -0.4785
     10 C         139.4558  139.7130  166.8732 C.ar    1  UNL1        0.1386
     11 C         139.0304  138.3080  166.5645 C.ar    1  UNL1        0.0369
     12 C         138.6006  137.9428  165.1746 C.ar    1  UNL1        0.0031
     13 C         138.5960  138.9825  164.0934 C.ar    1  UNL1        0.0002
     14 C         139.0214  140.3873  164.4020 C.ar    1  UNL1        0.0030
     15 C         139.4513  140.7526  165.7919 C.ar    1  UNL1        0.0338
     16 H         140.5533  142.5530  172.0888 H       1  UNL1        0.1233
     17 C         139.8587  146.3162  161.7756 C.3     1  UNL1        0.0310
     18 C         139.8632  145.2765  162.8568 C.ar    1  UNL1       -0.0218
     19 C         141.1641  144.7376  163.3737 C.ar    1  UNL1       -0.0043
     20 C         141.1686  143.6979  164.4549 C.ar    1  UNL1       -0.0003
     21 C         139.8722  143.1972  165.0193 C.ar    1  UNL1       -0.0001
     22 C         138.5712  143.7361  164.5025 C.ar    1  UNL1       -0.0003
     23 C         138.5667  144.7758  163.4213 C.ar    1  UNL1       -0.0043
@<TRIPOS>BOND
     1    17    18    1
     2    18    19   ar
     3    19    20   ar
     4    20    21   ar
     5    21     1    1
     6     1     2    2
     7     2     3    1
     8     3     4    1
     9     4     5    1
    10     5     6    1
    11     6     7    1
    12     7     8    1
    13     3     9    1
    14     9    10    1
    15    10    11   ar
    16    11    12   ar
    17    12    13   ar
    18    13    14   ar
    19    14    15   ar
    20    21    22   ar
    21    22    23   ar
    22    23    18   ar
    23    15     1    1
    24     8     3    1
    25    15    10   ar
    26     6    16    1
@<TRIPOS>MOLECULE
*****
 23 26 0 0 0
SMALL
GASTEIGER

@<TRIPOS>ATOM
      1 C         141.1378  142.2944  165.2980 C.2     1  UNL1        0.0020
      2 C         142.5385  142.0001  164.8488 C.2     1  UNL1        0.0130
      3 C         143.0351  142.5385  163.5398 C.3     1  UNL1        0.1542
      4 C         143.9391  141.7059  164.3997 C.3     1  UNL1        0.0614
      5 C         145.3396  141.4116  163.9505 C.3     1  UNL1        0.0725
      6 N         145.8362  141.9500  162.6415 N.3     1  UNL1       -0.2972
      7 C         144.9322  142.7827  161.7816 C.3     1  UNL1        0.0725
      8 C         143.5316  143.0770  162.2308 C.3     1  UNL1        0.0614
      9 O         142.1310  143.3712  162.6799 O.3     1  UNL1       -0.4785
     10 C         140.7304  143.6655  163.1291 C.ar    1  UNL1        0.1386
     11 C         139.8263  144.4982  162.2692 C.ar    1  UNL1        0.0369
     12 C         138.4258  144.7925  162.7183 C.ar    1  UNL1        0.0031
     13 C         137.9292  144.2541  164.0274 C.ar    1  UNL1        0.0002
     14 C         138.8332  143.4214  164.8872 C.ar    1  UNL1        0.0030
     15 C         140.2339  143.1271  164.4381 C.ar    1  UNL1        0.0338
     16 H         146.1181  141.1462  162.0804 H       1  UNL1        0.1233
     17 C         139.1516  140.1408  170.5341 C.3     1  UNL1        0.0310
     18 C         139.6481  140.6792  169.2250 C.ar    1  UNL1       -0.0218
     19 C         139.4686  139.8797  167.9687 C.ar    1  UNL1       -0.0043
     20 C         139.9652  140.4181  166.6597 C.ar    1  UNL1       -0.0003
     21 C         140.6413  141.7560  166.6070 C.ar    1  UNL1       -0.0001
     22 C         140.8208  142.5556  167.8634 C.ar    1  UNL1       -0.0003
     23 C         140.3243  142.0172  169.1724 C.ar    1  UNL1       -0.0043
@<TRIPOS>BOND
     1    17    18    1
     2    18    19   ar
     3    19    20   ar
     4    20    21   ar
     5    21     1    1
     6     1     2    2
     7     2     3    1
     8     3     4    1
     9     4     5    1
    10     5     6    1
    11     6     7    1
    12     7     8    1
    13     3     9    1
    14     9    10    1
    15    10    11   ar
    16    11    12   ar
    17    12    13   ar
    18    13    14   ar
    19    14    15   ar
    20    21    22   ar
    21    22    23   ar
    22    23    18   ar
    23    15     1    1
    24     8     3    1
    25    15    10   ar
    26     6    16    1
@<TRIPOS>MOLECULE
*****
 23 26 0 0 0
SMALL
GASTEIGER

@<TRIPOS>ATOM
      1 C         140.6254  141.4818  165.7025 C.2     1  UNL1        0.0020
      2 C         140.9368  140.1197  165.1566 C.2     1  UNL1        0.0130
      3 C         140.3192  139.6700  163.8657 C.3     1  UNL1        0.1542
      4 C         141.2480  138.7578  164.6107 C.3     1  UNL1        0.0614
      5 C         141.5593  137.3958  164.0647 C.3     1  UNL1        0.0725
      6 N         140.9417  136.9461  162.7739 N.3     1  UNL1       -0.2972
      7 C         140.0128  137.8583  162.0289 C.3     1  UNL1        0.0725
      8 C         139.7016  139.2203  162.5749 C.3     1  UNL1        0.0614
      9 O         139.3903  140.5824  163.1208 O.3     1  UNL1       -0.4785
     10 C         139.0790  141.9443  163.6667 C.ar    1  UNL1        0.1386
     11 C         138.1501  142.8567  162.9218 C.ar    1  UNL1        0.0369
     12 C         137.8388  144.2187  163.4677 C.ar    1  UNL1        0.0031
     13 C         138.4564  144.6684  164.7586 C.ar    1  UNL1        0.0002
     14 C         139.3853  143.7561  165.5035 C.ar    1  UNL1        0.0030
     15 C         139.6966  142.3941  164.9576 C.ar    1  UNL1        0.0338
     16 H         140.4174  136.0955  162.9789 H       1  UNL1        0.1233
     17 C         143.0958  143.2807  170.8660 C.3     1  UNL1        0.0310
     18 C         142.4782  142.8309  169.5751 C.ar    1  UNL1       -0.0218
     19 C         140.9856  142.7838  169.4342 C.ar    1  UNL1       -0.0043
     20 C         140.3680  142.3341  168.1433 C.ar    1  UNL1       -0.0003
     21 C         141.2430  141.9315  166.9934 C.ar    1  UNL1       -0.0001
     22 C         142.7357  141.9787  167.1344 C.ar    1  UNL1       -0.0003
     23 C         143.3533  142.4284  168.4252 C.ar    1  UNL1       -0.0043
@<TRIPOS>BOND
     1    17    18    1
     2    18    19   ar
     3    19    20   ar
     4    20    21   ar
     5    21     1    1
     6     1     2    2
     7     2     3    1
     8     3     4    1
     9     4     5    1
    10     5     6    1
    11     6     7    1
    12     7     8    1
    13     3     9    1
    14     9    10    1
    15    10    11   ar
    16    11    12   ar
    17    12    13   ar
    18    13    14   ar
    19    14    15   ar
    20    21    22   ar
    21    22    23   ar
    22    23    18   ar
    23    15     1    1
    24     8     3    1
    25    15    10   ar
    26     6    16    1
@<TRIPOS>MOLECULE
*****
 23 26 0 0 0
SMALL
GASTEIGER

@<TRIPOS>ATOM
      1 C         141.7627  141.2385  166.3752 C.2     1  UNL1        0.0020
      2 C         142.1854  141.7749  167.7108 C.2     1  UNL1        0.0130
      3 C         141.3826  141.4533  168.9364 C.3     1  UNL1        0.1542
      4 C         142.6080  142.3112  169.0463 C.3     1  UNL1        0.0614
      5 C         143.0307  142.8476  170.3818 C.3     1  UNL1        0.0725
      6 N         142.2279  142.5259  171.6074 N.3     1  UNL1       -0.2972
      7 C         141.0024  141.6680  171.4975 C.3     1  UNL1        0.0725
      8 C         140.5798  141.1317  170.1620 C.3     1  UNL1        0.0614
      9 O         140.1571  140.5953  168.8264 O.3     1  UNL1       -0.4785
     10 C         139.7344  140.0589  167.4909 C.ar    1  UNL1        0.1386
     11 C         138.5089  139.2009  167.3809 C.ar    1  UNL1        0.0369
     12 C         138.0863  138.6646  166.0453 C.ar    1  UNL1        0.0031
     13 C         138.8891  138.9862  164.8198 C.ar    1  UNL1        0.0002
     14 C         140.1145  139.8441  164.9297 C.ar    1  UNL1        0.0030
     15 C         140.5372  140.3805  166.2653 C.ar    1  UNL1        0.0338
     16 H         141.9293  143.4162  172.0058 H       1  UNL1        0.1233
     17 C         144.9739  142.5249  161.4729 C.3     1  UNL1        0.0310
     18 C         144.1711  142.2033  162.6984 C.ar    1  UNL1       -0.0218
     19 C         144.5133  140.9990  163.5245 C.ar    1  UNL1       -0.0043
     20 C         143.7105  140.6774  164.7501 C.ar    1  UNL1       -0.0003
     21 C         142.5655  141.5601  165.1496 C.ar    1  UNL1       -0.0001
     22 C         142.2232  142.7645  164.3235 C.ar    1  UNL1       -0.0003
     23 C         143.0260  143.0861  163.0980 C.ar    1  UNL1       -0.0043
@<TRIPOS>BOND
     1    17    18    1
     2    18    19   ar
     3    19    20   ar
     4    20    21   ar
     5    21     1    1
     6     1     2    2
     7     2     3    1
     8     3     4    1
     9     4     5    1
    10     5     6    1
    11     6     7    1
    12     7     8    1
    13     3     9    1
    14     9    10    1
    15    10    11   ar
    16    11    12   ar
    17    12    13   ar
    18    13    14   ar
    19    14    15   ar
    20    21    22   ar
    21    22    23   ar
    22    23    18   ar
    23    15     1    1
    24     8     3    1
    25    15    10   ar
    26     6    16    1
@<TRIPOS>MOLECULE
*****
 23 26 0 0 0
SMALL
GASTEIGER

@<TRIPOS>ATOM
      1 C         141.2392  142.2820  164.9339 C.2     1  UNL1        0.0020
      2 C         140.4655  143.3175  164.1727 C.2     1  UNL1        0.0130
      3 C         140.9912  143.8374  162.8676 C.3     1  UNL1        0.1542
      4 C         139.6919  144.3529  163.4115 C.3     1  UNL1        0.0614
      5 C         138.9183  145.3883  162.6504 C.3     1  UNL1        0.0725
      6 N         139.4441  145.9082  161.3453 N.3     1  UNL1       -0.2972
      7 C         140.7434  145.3927  160.8013 C.3     1  UNL1        0.0725
      8 C         141.5170  144.3573  161.5625 C.3     1  UNL1        0.0614
      9 O         142.2906  143.3218  162.3237 O.3     1  UNL1       -0.4785
     10 C         143.0642  142.2864  163.0848 C.ar    1  UNL1        0.1386
     11 C         144.3636  141.7708  162.5409 C.ar    1  UNL1        0.0369
     12 C         145.1372  140.7354  163.3021 C.ar    1  UNL1        0.0031
     13 C         144.6115  140.2155  164.6072 C.ar    1  UNL1        0.0002
     14 C         143.3121  140.7310  165.1511 C.ar    1  UNL1        0.0030
     15 C         142.5385  141.7665  164.3900 C.ar    1  UNL1        0.0338
     16 H         139.5488  146.9173  161.4510 H       1  UNL1        0.1233
     17 C         139.1362  140.2025  170.1543 C.3     1  UNL1        0.0310
     18 C         139.6619  140.7224  168.8492 C.ar    1  UNL1       -0.0218
     19 C         140.4394  142.0045  168.8112 C.ar    1  UNL1       -0.0043
     20 C         140.9652  142.5244  167.5061 C.ar    1  UNL1       -0.0003
     21 C         140.7134  141.7621  166.2390 C.ar    1  UNL1       -0.0001
     22 C         139.9358  140.4799  166.2770 C.ar    1  UNL1       -0.0003
     23 C         139.4101  139.9600  167.5821 C.ar    1  UNL1       -0.0043
@<TRIPOS>BOND
     1    17    18    1
     2    18    19   ar
     3    19    20   ar
     4    20    21   ar
     5    21     1    1
     6     1     2    2
     7     2     3    1
     8     3     4    1
     9     4     5    1
    10     5     6    1
    11     6     7    1
    12     7     8    1
    13     3     9    1
    14     9    10    1
    15    10    11   ar
    16    11    12   ar
    17    12    13   ar
    18    13    14   ar
    19    14    15   ar
    20    21    22   ar
    21    22    23   ar
    22    23    18   ar
    23    15     1    1
    24     8     3    1
    25    15    10   ar
    26     6    16    1
@<TRIPOS>MOLECULE
*****
 23 26 0 0 0
SMALL
GASTEIGER

@<TRIPOS>ATOM
      1 C         140.9359  140.6650  166.1689 C.2     1  UNL1        0.0020
      2 C         140.5742  140.4522  167.6090 C.2     1  UNL1        0.0130
      3 C         141.3801  141.1099  168.6898 C.3     1  UNL1        0.1542
      4 C         140.2125  140.2395  169.0491 C.3     1  UNL1        0.0614
      5 C         139.8508  140.0268  170.4892 C.3     1  UNL1        0.0725
      6 N         140.6568  140.6845  171.5699 N.3     1  UNL1       -0.2972
      7 C         141.8244  141.5548  171.2106 C.3     1  UNL1        0.0725
      8 C         142.1861  141.7675  169.7705 C.3     1  UNL1        0.0614
      9 O         142.5478  141.9802  168.3304 O.3     1  UNL1       -0.4785
     10 C         142.9095  142.1929  166.8903 C.ar    1  UNL1        0.1386
     11 C         144.0772  143.0633  166.5309 C.ar    1  UNL1        0.0369
     12 C         144.4388  143.2760  165.0908 C.ar    1  UNL1        0.0031
     13 C         143.6329  142.6183  164.0100 C.ar    1  UNL1        0.0002
     14 C         142.4653  141.7480  164.3694 C.ar    1  UNL1        0.0030
     15 C         142.1035  141.5353  165.8095 C.ar    1  UNL1        0.0338
     16 H         141.0178  139.9378  172.1637 H       1  UNL1        0.1233
     17 C         137.7122  138.0345  161.8459 C.3     1  UNL1        0.0310
     18 C         138.5181  138.6921  162.9266 C.ar    1  UNL1       -0.0218
     19 C         138.1582  140.0700  163.3975 C.ar    1  UNL1       -0.0043
     20 C         138.9642  140.7276  164.4783 C.ar    1  UNL1       -0.0003
     21 C         140.1300  140.0073  165.0881 C.ar    1  UNL1       -0.0001
     22 C         140.4900  138.6294  164.6172 C.ar    1  UNL1       -0.0003
     23 C         139.6840  137.9717  163.5365 C.ar    1  UNL1       -0.0043
@<TRIPOS>BOND
     1    17    18    1
     2    18    19   ar
     3    19    20   ar
     4    20    21   ar
     5    21     1    1
     6     1     2    2
     7     2     3    1
     8     3     4    1
     9     4     5    1
    10     5     6    1
    11     6     7    1
    12     7     8    1
    13     3     9    1
    14     9    10    1
    15    10    11   ar
    16    11    12   ar
    17    12    13   ar
    18    13    14   ar
    19    14    15   ar
    20    21    22   ar
    21    22    23   ar
    22    23    18   ar
    23    15     1    1
    24     8     3    1
    25    15    10   ar
    26     6    16    1
@<TRIPOS>MOLECULE
*****
 23 26 0 0 0
SMALL
GASTEIGER

@<TRIPOS>ATOM
      1 C         140.5215  141.0556  164.8897 C.2     1  UNL1        0.0020
      2 C         140.7882  142.4849  164.5204 C.2     1  UNL1        0.0130
      3 C         140.2843  143.0292  163.2166 C.3     1  UNL1        0.1542
      4 C         141.0547  143.9140  164.1512 C.3     1  UNL1        0.0614
      5 C         141.3213  145.3432  163.7819 C.3     1  UNL1        0.0725
      6 N         140.8175  145.8875  162.4781 N.3     1  UNL1       -0.2972
      7 C         140.0471  145.0026  161.5436 C.3     1  UNL1        0.0725
      8 C         139.7805  143.5735  161.9128 C.3     1  UNL1        0.0614
      9 O         139.5139  142.1442  162.2821 O.3     1  UNL1       -0.4785
     10 C         139.2473  140.7151  162.6513 C.ar    1  UNL1        0.1386
     11 C         138.4768  139.8301  161.7168 C.ar    1  UNL1        0.0369
     12 C         138.2102  138.4010  162.0860 C.ar    1  UNL1        0.0031
     13 C         138.7141  137.8567  163.3898 C.ar    1  UNL1        0.0002
     14 C         139.4845  138.7415  164.3243 C.ar    1  UNL1        0.0030
     15 C         139.7511  140.1708  163.9551 C.ar    1  UNL1        0.0338
     16 H         141.6327  146.2205  161.9634 H       1  UNL1        0.1233
     17 C         142.5369  138.8784  170.1049 C.3     1  UNL1        0.0310
     18 C         142.0331  139.4227  168.8011 C.ar    1  UNL1       -0.0218
     19 C         142.8638  139.2852  167.5597 C.ar    1  UNL1       -0.0043
     20 C         142.3600  139.8295  166.2559 C.ar    1  UNL1       -0.0003
     21 C         141.0254  140.5113  166.1935 C.ar    1  UNL1       -0.0001
     22 C         140.1946  140.6489  167.4348 C.ar    1  UNL1       -0.0003
     23 C         140.6984  140.1046  168.7386 C.ar    1  UNL1       -0.0043
@<TRIPOS>BOND
     1    17    18    1
     2    18    19   ar
     3    19    20   ar
     4    20    21   ar
     5    21     1    1
     6     1     2    2
     7     2     3    1
     8     3     4    1
     9     4     5    1
    10     5     6    1
    11     6     7    1
    12     7     8    1
    13     3     9    1
    14     9    10    1
    15    10    11   ar
    16    11    12   ar
    17    12    13   ar
    18    13    14   ar
    19    14    15   ar
    20    21    22   ar
    21    22    23   ar
    22    23    18   ar
    23    15     1    1
    24     8     3    1
    25    15    10   ar
    26     6    16    1
@<TRIPOS>MOLECULE
*****
 23 26 0 0 0
SMALL
GASTEIGER

@<TRIPOS>ATOM
      1 C         140.7684  141.8576  165.0160 C.2     1  UNL1        0.0020
      2 C         140.2022  140.5074  164.6899 C.2     1  UNL1        0.0130
      3 C         139.7011  140.2186  163.3059 C.3     1  UNL1        0.1542
      4 C         139.6361  139.1572  164.3637 C.3     1  UNL1        0.0614
      5 C         139.0700  137.8070  164.0376 C.3     1  UNL1        0.0725
      6 N         138.5688  137.5182  162.6536 N.3     1  UNL1       -0.2972
      7 C         138.6337  138.5796  161.5958 C.3     1  UNL1        0.0725
      8 C         139.1999  139.9298  161.9219 C.3     1  UNL1        0.0614
      9 O         139.7660  141.2801  162.2480 O.3     1  UNL1       -0.4785
     10 C         140.3322  142.6303  162.5741 C.ar    1  UNL1        0.1386
     11 C         140.3972  143.6918  161.5162 C.ar    1  UNL1        0.0369
     12 C         140.9633  145.0420  161.8424 C.ar    1  UNL1        0.0031
     13 C         141.4645  145.3308  163.2264 C.ar    1  UNL1        0.0002
     14 C         141.3995  144.2694  164.2842 C.ar    1  UNL1        0.0030
     15 C         140.8333  142.9191  163.9581 C.ar    1  UNL1        0.0338
     16 H         137.5881  137.2531  162.7449 H       1  UNL1        0.1233
     17 C         142.7731  143.0128  170.5519 C.3     1  UNL1        0.0310
     18 C         142.2719  142.7240  169.1680 C.ar    1  UNL1       -0.0218
     19 C         143.2208  142.2378  168.1129 C.ar    1  UNL1       -0.0043
     20 C         142.7196  141.9491  166.7289 C.ar    1  UNL1       -0.0003
     21 C         141.2695  142.1464  166.4000 C.ar    1  UNL1       -0.0001
     22 C         140.3205  142.6326  167.4550 C.ar    1  UNL1       -0.0003
     23 C         140.8217  142.9214  168.8390 C.ar    1  UNL1       -0.0043
@<TRIPOS>BOND
     1    17    18    1
     2    18    19   ar
     3    19    20   ar
     4    20    21   ar
     5    21     1    1
     6     1     2    2
     7     2     3    1
     8     3     4    1
     9     4     5    1
    10     5     6    1
    11     6     7    1
    12     7     8    1
    13     3     9    1
    14     9    10    1
    15    10    11   ar
    16    11    12   ar
    17    12    13   ar
    18    13    14   ar
    19    14    15   ar
    20    21    22   ar
    21    22    23   ar
    22    23    18   ar
    23    15     1    1
    24     8     3    1
    25    15    10   ar
    26     6    16    1
