@<TRIPOS>MOLECULE
*****
 33 37 0 0 0
SMALL
GASTEIGER

@<TRIPOS>ATOM
      1 C         141.0036  145.4989  160.3068 C.3     1  UNL1        0.0722
      2 N         141.0916  144.6751  161.5572 N.3     1  UNL1       -0.2727
      3 C         141.9240  143.4274  161.5764 C.3     1  UNL1        0.0725
      4 C         142.0120  142.6037  162.8269 C.3     1  UNL1        0.0234
      5 C         141.2676  143.0276  164.0582 C.3     1  UNL1        0.0464
      6 C         140.4352  144.2753  164.0390 C.3     1  UNL1        0.0234
      7 C         140.3472  145.0990  162.7885 C.3     1  UNL1        0.0725
      8 C         141.3556  142.2039  165.3087 C.ar    1  UNL1        0.1003
      9 N         140.6547  142.4895  166.6038 N.ar    1  UNL1       -0.0814
     10 O         141.0259  141.4120  167.5791 O.2     1  UNL1       -0.3536
     11 C         141.9561  140.4604  166.8868 C.ar    1  UNL1        0.1787
     12 C         142.6438  139.2116  167.3529 C.ar    1  UNL1        0.0698
     13 C         143.5354  138.4521  166.4157 C.ar    1  UNL1        0.1433
     14 F         144.2233  137.2032  166.8817 F       1  UNL1       -0.2041
     15 C         143.7392  138.9415  165.0125 C.ar    1  UNL1        0.0299
     16 C         143.0514  140.1904  164.5464 C.ar    1  UNL1        0.0067
     17 C         142.1598  140.9498  165.4836 C.ar    1  UNL1        0.0540
     18 C         140.9121  144.8251  158.9697 C.3     1  UNL1        0.0212
     19 C         139.6235  144.1919  158.5355 C.3     1  UNL1        0.0488
     20 C         139.1714  142.9060  159.1616 C.3     1  UNL1        0.2054
     21 O         138.1617  142.9262  160.2707 O.3     1  UNL1       -0.4754
     22 C         138.1738  139.6593  166.3187 C.3     1  UNL1        0.0313
     23 C         138.8523  139.3283  165.0224 C.ar    1  UNL1       -0.0125
     24 C         139.7034  138.0980  164.9141 C.ar    1  UNL1        0.0781
     25 C         140.3819  137.7670  163.6179 C.ar    1  UNL1        0.3456
     26 O         141.2330  136.5366  163.5097 O.2     1  UNL1       -0.2445
     27 O         140.2092  138.6665  162.4300 O.2     1  UNL1       -0.4209
     28 C         139.3581  139.8969  162.5383 C.ar    1  UNL1        0.1514
     29 C         139.1854  140.7963  161.3504 C.ar    1  UNL1        0.0744
     30 C         138.3343  142.0267  161.4587 C.ar    1  UNL1        0.1416
     31 C         137.6559  142.3576  162.7549 C.ar    1  UNL1        0.0371
     32 C         137.8285  141.4582  163.9428 C.ar    1  UNL1        0.0058
     33 C         138.6796  140.2279  163.8345 C.ar    1  UNL1        0.0311
@<TRIPOS>BOND
     1    22    23    1
     2    23    24   ar
     3    24    25   ar
     4    25    26    2
     5    25    27   ar
     6    27    28   ar
     7    28    29   ar
     8    29    30   ar
     9    30    21    1
    10    21    20    1
    11    20    19    1
    12    19    18    1
    13    18     1    1
    14     1     2    1
    15     2     3    1
    16     3     4    1
    17     4     5    1
    18     5     8    1
    19     8     9   ar
    20     9    10   ar
    21    10    11   ar
    22    11    12   ar
    23    12    13   ar
    24    13    14    1
    25    13    15   ar
    26    15    16   ar
    27    16    17   ar
    28     5     6    1
    29     6     7    1
    30    30    31   ar
    31    31    32   ar
    32    32    33   ar
    33    33    23   ar
    34    33    28   ar
    35     7     2    1
    36    17     8   ar
    37    17    11   ar
@<TRIPOS>MOLECULE
*****
 33 37 0 0 0
SMALL
GASTEIGER

@<TRIPOS>ATOM
      1 C         137.7607  140.1377  162.2795 C.3     1  UNL1        0.0722
      2 N         138.3333  140.2026  163.6644 N.3     1  UNL1       -0.2727
      3 C         139.1391  141.3949  164.0877 C.3     1  UNL1        0.0725
      4 C         139.7117  141.4598  165.4726 C.3     1  UNL1        0.0234
      5 C         139.4785  140.3324  166.4342 C.3     1  UNL1        0.0464
      6 C         138.6727  139.1402  166.0109 C.3     1  UNL1        0.0234
      7 C         138.1001  139.0753  164.6260 C.3     1  UNL1        0.0725
      8 C         140.0510  140.3973  167.8191 C.ar    1  UNL1        0.1003
      9 N         139.4475  139.7924  169.0520 N.ar    1  UNL1       -0.0814
     10 O         140.3511  140.0998  170.2091 O.2     1  UNL1       -0.3536
     11 C         141.5131  140.8947  169.6914 C.ar    1  UNL1        0.1787
     12 C         142.7160  141.4748  170.3743 C.ar    1  UNL1        0.0698
     13 C         143.7336  142.2388  169.5799 C.ar    1  UNL1        0.1433
     14 F         144.9366  142.8190  170.2627 F       1  UNL1       -0.2041
     15 C         143.5481  142.4227  168.1028 C.ar    1  UNL1        0.0299
     16 C         142.3451  141.8426  167.4200 C.ar    1  UNL1        0.0067
     17 C         141.3276  141.0786  168.2144 C.ar    1  UNL1        0.0540
     18 C         138.5396  140.6837  161.1196 C.3     1  UNL1        0.0212
     19 C         138.4024  140.0582  159.7631 C.3     1  UNL1        0.0488
     20 C         139.5152  139.2197  159.2078 C.3     1  UNL1        0.2054
     21 O         140.0585  138.0712  160.0051 O.3     1  UNL1       -0.4754
     22 C         143.2868  138.4375  166.0627 C.3     1  UNL1        0.0313
     23 C         143.5739  139.1130  164.7545 C.ar    1  UNL1       -0.0125
     24 C         144.7398  140.0489  164.6337 C.ar    1  UNL1        0.0781
     25 C         145.0269  140.7244  163.3255 C.ar    1  UNL1        0.3456
     26 O         146.1929  141.6604  163.2048 O.2     1  UNL1       -0.2445
     27 O         144.1481  140.4640  162.1382 O.2     1  UNL1       -0.4209
     28 C         142.9821  139.5280  162.2590 C.ar    1  UNL1        0.1514
     29 C         142.1033  139.2676  161.0716 C.ar    1  UNL1        0.0744
     30 C         140.9374  138.3316  161.1925 C.ar    1  UNL1        0.1416
     31 C         140.6503  137.6562  162.5006 C.ar    1  UNL1        0.0371
     32 C         141.5291  137.9166  163.6880 C.ar    1  UNL1        0.0058
     33 C         142.6950  138.8525  163.5671 C.ar    1  UNL1        0.0311
@<TRIPOS>BOND
     1    22    23    1
     2    23    24   ar
     3    24    25   ar
     4    25    26    2
     5    25    27   ar
     6    27    28   ar
     7    28    29   ar
     8    29    30   ar
     9    30    21    1
    10    21    20    1
    11    20    19    1
    12    19    18    1
    13    18     1    1
    14     1     2    1
    15     2     3    1
    16     3     4    1
    17     4     5    1
    18     5     8    1
    19     8     9   ar
    20     9    10   ar
    21    10    11   ar
    22    11    12   ar
    23    12    13   ar
    24    13    14    1
    25    13    15   ar
    26    15    16   ar
    27    16    17   ar
    28     5     6    1
    29     6     7    1
    30    30    31   ar
    31    31    32   ar
    32    32    33   ar
    33    33    23   ar
    34    33    28   ar
    35     7     2    1
    36    17     8   ar
    37    17    11   ar
@<TRIPOS>MOLECULE
*****
 33 37 0 0 0
SMALL
GASTEIGER

@<TRIPOS>ATOM
      1 C         139.8837  145.7873  161.8244 C.3     1  UNL1        0.0722
      2 N         140.2009  144.8843  162.9794 N.3     1  UNL1       -0.2727
      3 C         141.4536  144.0594  162.9645 C.3     1  UNL1        0.0725
      4 C         141.7708  143.1564  164.1194 C.3     1  UNL1        0.0234
      5 C         140.8351  143.0783  165.2893 C.3     1  UNL1        0.0464
      6 C         139.5824  143.9031  165.3042 C.3     1  UNL1        0.0234
      7 C         139.2653  144.8062  164.1492 C.3     1  UNL1        0.0725
      8 C         141.1523  142.1753  166.4443 C.ar    1  UNL1        0.1003
      9 N         140.6899  142.3584  167.8596 N.ar    1  UNL1       -0.0814
     10 O         141.2394  141.2269  168.6767 O.2     1  UNL1       -0.3536
     11 C         142.0412  140.3444  167.7666 C.ar    1  UNL1        0.1787
     12 C         142.8134  139.0829  168.0160 C.ar    1  UNL1        0.0698
     13 C         143.5318  138.4075  166.8856 C.ar    1  UNL1        0.1433
     14 F         144.3041  137.1460  167.1349 F       1  UNL1       -0.2041
     15 C         143.4780  138.9936  165.5059 C.ar    1  UNL1        0.0299
     16 C         142.7058  140.2552  165.2566 C.ar    1  UNL1        0.0067
     17 C         141.9874  140.9306  166.3869 C.ar    1  UNL1        0.0540
     18 C         140.6339  145.6451  160.5332 C.3     1  UNL1        0.0212
     19 C         139.9850  144.9745  159.3588 C.3     1  UNL1        0.0488
     20 C         139.6123  143.5235  159.4353 C.3     1  UNL1        0.2054
     21 O         138.6475  143.0512  160.4822 O.3     1  UNL1       -0.4754
     22 C         141.0299  137.3018  163.4010 C.3     1  UNL1        0.0313
     23 C         139.9865  138.2767  163.8603 C.ar    1  UNL1       -0.0125
     24 C         139.2779  138.0580  165.1641 C.ar    1  UNL1        0.0781
     25 C         138.2346  139.0329  165.6235 C.ar    1  UNL1        0.3456
     26 O         137.5260  138.8142  166.9274 O.2     1  UNL1       -0.2445
     27 O         137.8998  140.2265  164.7790 O.2     1  UNL1       -0.4209
     28 C         138.6084  140.4453  163.4751 C.ar    1  UNL1        0.1514
     29 C         138.2737  141.6389  162.6306 C.ar    1  UNL1        0.0744
     30 C         138.9822  141.8576  161.3268 C.ar    1  UNL1        0.1416
     31 C         140.0256  140.8827  160.8674 C.ar    1  UNL1        0.0371
     32 C         140.3604  139.6891  161.7119 C.ar    1  UNL1        0.0058
     33 C         139.6518  139.4704  163.0157 C.ar    1  UNL1        0.0311
@<TRIPOS>BOND
     1    22    23    1
     2    23    24   ar
     3    24    25   ar
     4    25    26    2
     5    25    27   ar
     6    27    28   ar
     7    28    29   ar
     8    29    30   ar
     9    30    21    1
    10    21    20    1
    11    20    19    1
    12    19    18    1
    13    18     1    1
    14     1     2    1
    15     2     3    1
    16     3     4    1
    17     4     5    1
    18     5     8    1
    19     8     9   ar
    20     9    10   ar
    21    10    11   ar
    22    11    12   ar
    23    12    13   ar
    24    13    14    1
    25    13    15   ar
    26    15    16   ar
    27    16    17   ar
    28     5     6    1
    29     6     7    1
    30    30    31   ar
    31    31    32   ar
    32    32    33   ar
    33    33    23   ar
    34    33    28   ar
    35     7     2    1
    36    17     8   ar
    37    17    11   ar
@<TRIPOS>MOLECULE
*****
 33 37 0 0 0
SMALL
GASTEIGER

@<TRIPOS>ATOM
      1 C         143.6190  139.7284  161.5685 C.3     1  UNL1        0.0722
      2 N         143.3701  139.7313  163.0477 N.3     1  UNL1       -0.2727
      3 C         143.6376  140.9696  163.8508 C.3     1  UNL1        0.0725
      4 C         143.3887  140.9725  165.3300 C.3     1  UNL1        0.0234
      5 C         142.8723  139.7370  166.0061 C.3     1  UNL1        0.0464
      6 C         142.6048  138.4988  165.2029 C.3     1  UNL1        0.0234
      7 C         142.8537  138.4959  163.7237 C.3     1  UNL1        0.0725
      8 C         142.6234  139.7399  167.4853 C.ar    1  UNL1        0.1003
      9 N         143.1516  138.7393  168.4702 N.ar    1  UNL1       -0.0814
     10 O         142.6572  139.1249  169.8329 O.2     1  UNL1       -0.3536
     11 C         141.8236  140.3637  169.6902 C.ar    1  UNL1        0.1787
     12 C         141.0808  141.1947  170.6940 C.ar    1  UNL1        0.0698
     13 C         140.3171  142.4059  170.2469 C.ar    1  UNL1        0.1433
     14 F         139.5743  143.2370  171.2506 F       1  UNL1       -0.2041
     15 C         140.2962  142.7860  168.7960 C.ar    1  UNL1        0.0299
     16 C         141.0390  141.9549  167.7922 C.ar    1  UNL1        0.0067
     17 C         141.8027  140.7438  168.2393 C.ar    1  UNL1        0.0540
     18 C         143.9990  138.4541  160.8743 C.3     1  UNL1        0.0212
     19 C         142.9451  137.6194  160.2089 C.3     1  UNL1        0.0488
     20 C         141.9553  138.2604  159.2818 C.3     1  UNL1        0.2054
     21 O         140.5028  138.3095  159.6530 O.3     1  UNL1       -0.4754
     22 C         138.9016  142.0669  165.1818 C.3     1  UNL1        0.0313
     23 C         138.8346  140.5869  164.9474 C.ar    1  UNL1       -0.0125
     24 C         138.3506  139.6762  166.0366 C.ar    1  UNL1        0.0781
     25 C         138.2836  138.1961  165.8021 C.ar    1  UNL1        0.3456
     26 O         137.7995  137.2854  166.8914 O.2     1  UNL1       -0.2445
     27 O         138.7006  137.6268  164.4786 O.2     1  UNL1       -0.4209
     28 C         139.1847  138.5375  163.3893 C.ar    1  UNL1        0.1514
     29 C         139.6017  137.9681  162.0658 C.ar    1  UNL1        0.0744
     30 C         140.0857  138.8788  160.9766 C.ar    1  UNL1        0.1416
     31 C         140.1527  140.3589  161.2110 C.ar    1  UNL1        0.0371
     32 C         139.7357  140.9282  162.5346 C.ar    1  UNL1        0.0058
     33 C         139.2517  140.0175  163.6237 C.ar    1  UNL1        0.0311
@<TRIPOS>BOND
     1    22    23    1
     2    23    24   ar
     3    24    25   ar
     4    25    26    2
     5    25    27   ar
     6    27    28   ar
     7    28    29   ar
     8    29    30   ar
     9    30    21    1
    10    21    20    1
    11    20    19    1
    12    19    18    1
    13    18     1    1
    14     1     2    1
    15     2     3    1
    16     3     4    1
    17     4     5    1
    18     5     8    1
    19     8     9   ar
    20     9    10   ar
    21    10    11   ar
    22    11    12   ar
    23    12    13   ar
    24    13    14    1
    25    13    15   ar
    26    15    16   ar
    27    16    17   ar
    28     5     6    1
    29     6     7    1
    30    30    31   ar
    31    31    32   ar
    32    32    33   ar
    33    33    23   ar
    34    33    28   ar
    35     7     2    1
    36    17     8   ar
    37    17    11   ar
@<TRIPOS>MOLECULE
*****
 33 37 0 0 0
SMALL
GASTEIGER

@<TRIPOS>ATOM
      1 C         143.1411  143.6411  161.1537 C.3     1  UNL1        0.0722
      2 N         143.1141  142.7839  162.3843 N.3     1  UNL1       -0.2727
      3 C         142.7261  143.3799  163.7051 C.3     1  UNL1        0.0725
      4 C         142.6991  142.5227  164.9357 C.3     1  UNL1        0.0234
      5 C         143.0601  141.0695  164.8456 C.3     1  UNL1        0.0464
      6 C         143.4481  140.4736  163.5249 C.3     1  UNL1        0.0234
      7 C         143.4751  141.3308  162.2943 C.3     1  UNL1        0.0725
      8 C         143.0331  140.2123  166.0762 C.ar    1  UNL1        0.1003
      9 N         143.6593  138.8569  166.2205 N.ar    1  UNL1       -0.0814
     10 O         143.3884  138.3669  167.6122 O.2     1  UNL1       -0.3536
     11 C         142.5947  139.4194  168.3279 C.ar    1  UNL1        0.1787
     12 C         142.0436  139.4866  169.7213 C.ar    1  UNL1        0.0698
     13 C         141.2728  140.6944  170.1655 C.ar    1  UNL1        0.1433
     14 F         140.7217  140.7617  171.5590 F       1  UNL1       -0.2041
     15 C         141.0533  141.8349  169.2163 C.ar    1  UNL1        0.0299
     16 C         141.6044  141.7677  167.8228 C.ar    1  UNL1        0.0067
     17 C         142.3751  140.5599  167.3786 C.ar    1  UNL1        0.0540
     18 C         142.0144  143.5710  160.1659 C.3     1  UNL1        0.0212
     19 C         140.9427  144.6205  160.1749 C.3     1  UNL1        0.0488
     20 C         140.2446  144.9687  161.4560 C.3     1  UNL1        0.2054
     21 O         139.0012  144.2317  161.8569 O.3     1  UNL1       -0.4754
     22 C         138.8901  139.5593  166.8974 C.3     1  UNL1        0.0313
     23 C         139.3763  139.4649  165.4816 C.ar    1  UNL1       -0.0125
     24 C         139.9563  138.1790  164.9718 C.ar    1  UNL1        0.0781
     25 C         140.4425  138.0846  163.5560 C.ar    1  UNL1        0.3456
     26 O         141.0225  136.7986  163.0463 O.2     1  UNL1       -0.2445
     27 O         140.3487  139.2763  162.6498 O.2     1  UNL1       -0.4209
     28 C         139.7687  140.5623  163.1595 C.ar    1  UNL1        0.1514
     29 C         139.6750  141.7540  162.2534 C.ar    1  UNL1        0.0744
     30 C         139.0950  143.0399  162.7631 C.ar    1  UNL1        0.1416
     31 C         138.6088  143.1343  164.1790 C.ar    1  UNL1        0.0371
     32 C         138.7025  141.9426  165.0851 C.ar    1  UNL1        0.0058
     33 C         139.2825  140.6567  164.5754 C.ar    1  UNL1        0.0311
@<TRIPOS>BOND
     1    22    23    1
     2    23    24   ar
     3    24    25   ar
     4    25    26    2
     5    25    27   ar
     6    27    28   ar
     7    28    29   ar
     8    29    30   ar
     9    30    21    1
    10    21    20    1
    11    20    19    1
    12    19    18    1
    13    18     1    1
    14     1     2    1
    15     2     3    1
    16     3     4    1
    17     4     5    1
    18     5     8    1
    19     8     9   ar
    20     9    10   ar
    21    10    11   ar
    22    11    12   ar
    23    12    13   ar
    24    13    14    1
    25    13    15   ar
    26    15    16   ar
    27    16    17   ar
    28     5     6    1
    29     6     7    1
    30    30    31   ar
    31    31    32   ar
    32    32    33   ar
    33    33    23   ar
    34    33    28   ar
    35     7     2    1
    36    17     8   ar
    37    17    11   ar
@<TRIPOS>MOLECULE
*****
 33 37 0 0 0
SMALL
GASTEIGER

@<TRIPOS>ATOM
      1 C         138.4002  138.2404  160.9591 C.3     1  UNL1        0.0722
      2 N         138.5168  138.5738  162.4170 N.3     1  UNL1       -0.2727
      3 C         138.2035  139.9601  162.8967 C.3     1  UNL1        0.0725
      4 C         138.3201  140.2935  164.3545 C.3     1  UNL1        0.0234
      5 C         138.7499  139.2406  165.3326 C.3     1  UNL1        0.0464
      6 C         139.0631  137.8543  164.8529 C.3     1  UNL1        0.0234
      7 C         138.9466  137.5209  163.3951 C.3     1  UNL1        0.0725
      8 C         138.8665  139.5739  166.7904 C.ar    1  UNL1        0.1003
      9 N         138.1009  138.9274  167.9067 N.ar    1  UNL1       -0.0814
     10 O         138.5304  139.5663  169.1941 O.2     1  UNL1       -0.3536
     11 C         139.5613  140.6077  168.8736 C.ar    1  UNL1        0.1787
     12 C         140.3377  141.5521  169.7424 C.ar    1  UNL1        0.0698
     13 C         141.3219  142.5015  169.1257 C.ar    1  UNL1        0.1433
     14 F         142.0984  143.4460  169.9946 F       1  UNL1       -0.2041
     15 C         141.5296  142.5062  167.6402 C.ar    1  UNL1        0.0299
     16 C         140.7532  141.5616  166.7713 C.ar    1  UNL1        0.0067
     17 C         139.7690  140.6124  167.3880 C.ar    1  UNL1        0.0540
     18 C         139.6277  138.2037  160.0977 C.3     1  UNL1        0.0212
     19 C         140.9272  138.7404  160.6205 C.3     1  UNL1        0.0488
     20 C         141.8760  137.8327  161.3456 C.3     1  UNL1        0.2054
     21 O         142.1960  138.0815  162.7899 O.3     1  UNL1       -0.4754
     22 C         144.7689  143.8139  165.5773 C.3     1  UNL1        0.0313
     23 C         143.6168  143.6100  164.6386 C.ar    1  UNL1       -0.0125
     24 C         142.8200  144.7880  164.1621 C.ar    1  UNL1        0.0781
     25 C         141.6679  144.5841  163.2235 C.ar    1  UNL1        0.3456
     26 O         140.8710  145.7623  162.7470 O.2     1  UNL1       -0.2445
     27 O         141.3127  143.2020  162.7613 O.2     1  UNL1       -0.4209
     28 C         142.1095  142.0238  163.2377 C.ar    1  UNL1        0.1514
     29 C         141.7543  140.6418  162.7756 C.ar    1  UNL1        0.0744
     30 C         142.5512  139.4637  163.2520 C.ar    1  UNL1        0.1416
     31 C         143.7032  139.6676  164.1907 C.ar    1  UNL1        0.0371
     32 C         144.0585  141.0497  164.6529 C.ar    1  UNL1        0.0058
     33 C         143.2616  142.2278  164.1764 C.ar    1  UNL1        0.0311
@<TRIPOS>BOND
     1    22    23    1
     2    23    24   ar
     3    24    25   ar
     4    25    26    2
     5    25    27   ar
     6    27    28   ar
     7    28    29   ar
     8    29    30   ar
     9    30    21    1
    10    21    20    1
    11    20    19    1
    12    19    18    1
    13    18     1    1
    14     1     2    1
    15     2     3    1
    16     3     4    1
    17     4     5    1
    18     5     8    1
    19     8     9   ar
    20     9    10   ar
    21    10    11   ar
    22    11    12   ar
    23    12    13   ar
    24    13    14    1
    25    13    15   ar
    26    15    16   ar
    27    16    17   ar
    28     5     6    1
    29     6     7    1
    30    30    31   ar
    31    31    32   ar
    32    32    33   ar
    33    33    23   ar
    34    33    28   ar
    35     7     2    1
    36    17     8   ar
    37    17    11   ar
@<TRIPOS>MOLECULE
*****
 33 37 0 0 0
SMALL
GASTEIGER

@<TRIPOS>ATOM
      1 C         142.4866  144.1063  160.8579 C.3     1  UNL1        0.0722
      2 N         142.5820  143.2013  162.0503 N.3     1  UNL1       -0.2727
      3 C         143.0369  141.7820  161.8802 C.3     1  UNL1        0.0725
      4 C         143.1323  140.8770  163.0725 C.3     1  UNL1        0.0234
      5 C         142.7729  141.3912  164.4351 C.3     1  UNL1        0.0464
      6 C         142.3180  142.8104  164.6052 C.3     1  UNL1        0.0234
      7 C         142.2226  143.7154  163.4128 C.3     1  UNL1        0.0725
      8 C         142.8683  140.4862  165.6275 C.ar    1  UNL1        0.1003
      9 N         143.6030  139.1797  165.6862 N.ar    1  UNL1       -0.0814
     10 O         143.4345  138.6148  167.0656 O.2     1  UNL1       -0.3536
     11 C         142.5957  139.5721  167.8593 C.ar    1  UNL1        0.1787
     12 C         142.1054  139.5400  169.2764 C.ar    1  UNL1        0.0698
     13 C         141.2650  140.6646  169.8049 C.ar    1  UNL1        0.1433
     14 F         140.7746  140.6326  171.2221 F       1  UNL1       -0.2041
     15 C         140.9151  141.8212  168.9161 C.ar    1  UNL1        0.0299
     16 C         141.4054  141.8532  167.4989 C.ar    1  UNL1        0.0067
     17 C         142.2458  140.7286  166.9705 C.ar    1  UNL1        0.0540
     18 C         141.1784  144.2683  160.1420 C.3     1  UNL1        0.0212
     19 C         140.2234  145.3469  160.5597 C.3     1  UNL1        0.0488
     20 C         139.4777  145.2278  161.8557 C.3     1  UNL1        0.2054
     21 O         138.3928  144.2028  162.0054 O.3     1  UNL1       -0.4754
     22 C         138.8954  139.3892  166.8867 C.3     1  UNL1        0.0313
     23 C         139.2894  139.3651  165.4396 C.ar    1  UNL1       -0.0125
     24 C         139.9075  138.1317  164.8510 C.ar    1  UNL1        0.0781
     25 C         140.3015  138.1076  163.4038 C.ar    1  UNL1        0.3456
     26 O         140.9196  136.8741  162.8153 O.2     1  UNL1       -0.2445
     27 O         140.0774  139.3170  162.5453 O.2     1  UNL1       -0.4209
     28 C         139.4592  140.5505  163.1339 C.ar    1  UNL1        0.1514
     29 C         139.2351  141.7599  162.2753 C.ar    1  UNL1        0.0744
     30 C         138.6170  142.9933  162.8639 C.ar    1  UNL1        0.1416
     31 C         138.2230  143.0174  164.3110 C.ar    1  UNL1        0.0371
     32 C         138.4471  141.8080  165.1696 C.ar    1  UNL1        0.0058
     33 C         139.0652  140.5746  164.5810 C.ar    1  UNL1        0.0311
@<TRIPOS>BOND
     1    22    23    1
     2    23    24   ar
     3    24    25   ar
     4    25    26    2
     5    25    27   ar
     6    27    28   ar
     7    28    29   ar
     8    29    30   ar
     9    30    21    1
    10    21    20    1
    11    20    19    1
    12    19    18    1
    13    18     1    1
    14     1     2    1
    15     2     3    1
    16     3     4    1
    17     4     5    1
    18     5     8    1
    19     8     9   ar
    20     9    10   ar
    21    10    11   ar
    22    11    12   ar
    23    12    13   ar
    24    13    14    1
    25    13    15   ar
    26    15    16   ar
    27    16    17   ar
    28     5     6    1
    29     6     7    1
    30    30    31   ar
    31    31    32   ar
    32    32    33   ar
    33    33    23   ar
    34    33    28   ar
    35     7     2    1
    36    17     8   ar
    37    17    11   ar
@<TRIPOS>MOLECULE
*****
 33 37 0 0 0
SMALL
GASTEIGER

@<TRIPOS>ATOM
      1 C         141.2240  138.6380  160.8383 C.3     1  UNL1        0.0722
      2 N         140.6466  138.7456  162.2185 N.3     1  UNL1       -0.2727
      3 C         139.5629  139.7431  162.5025 C.3     1  UNL1        0.0725
      4 C         138.9855  139.8506  163.8828 C.3     1  UNL1        0.0234
      5 C         139.4919  138.9607  164.9790 C.3     1  UNL1        0.0464
      6 C         140.5756  137.9633  164.6950 C.3     1  UNL1        0.0234
      7 C         141.1529  137.8557  163.3147 C.3     1  UNL1        0.0725
      8 C         138.9145  139.0682  166.3593 C.ar    1  UNL1        0.1003
      9 N         137.6522  138.4159  166.8403 N.ar    1  UNL1       -0.0814
     10 O         137.4557  138.7916  168.2792 O.2     1  UNL1       -0.3536
     11 C         138.5964  139.6759  168.6874 C.ar    1  UNL1        0.1787
     12 C         138.9305  140.3476  169.9863 C.ar    1  UNL1        0.0698
     13 C         140.1664  141.1903  170.0986 C.ar    1  UNL1        0.1433
     14 F         140.5006  141.8620  171.3975 F       1  UNL1       -0.2041
     15 C         141.0680  141.3613  168.9121 C.ar    1  UNL1        0.0299
     16 C         140.7338  140.6896  167.6132 C.ar    1  UNL1        0.0067
     17 C         139.4980  139.8469  167.5008 C.ar    1  UNL1        0.0540
     18 C         142.4019  137.7442  160.5856 C.3     1  UNL1        0.0212
     19 C         143.7877  138.2220  160.9034 C.3     1  UNL1        0.0488
     20 C         144.1465  139.6654  160.7088 C.3     1  UNL1        0.2054
     21 O         144.4491  140.5298  161.8968 O.3     1  UNL1       -0.4754
     22 C         139.6771  143.5917  165.7830 C.3     1  UNL1        0.0313
     23 C         140.1099  143.8540  164.3710 C.ar    1  UNL1       -0.0125
     24 C         139.4581  144.9473  163.5775 C.ar    1  UNL1        0.0781
     25 C         139.8909  145.2096  162.1655 C.ar    1  UNL1        0.3456
     26 O         139.2390  146.3030  161.3720 O.2     1  UNL1       -0.2445
     27 O         140.9757  144.3786  161.5469 O.2     1  UNL1       -0.4209
     28 C         141.6276  143.2852  162.3404 C.ar    1  UNL1        0.1514
     29 C         142.7124  142.4542  161.7219 C.ar    1  UNL1        0.0744
     30 C         143.3643  141.3609  162.5153 C.ar    1  UNL1        0.1416
     31 C         142.9314  141.0986  163.9273 C.ar    1  UNL1        0.0371
     32 C         141.8466  141.9296  164.5459 C.ar    1  UNL1        0.0058
     33 C         141.1947  143.0229  163.7524 C.ar    1  UNL1        0.0311
@<TRIPOS>BOND
     1    22    23    1
     2    23    24   ar
     3    24    25   ar
     4    25    26    2
     5    25    27   ar
     6    27    28   ar
     7    28    29   ar
     8    29    30   ar
     9    30    21    1
    10    21    20    1
    11    20    19    1
    12    19    18    1
    13    18     1    1
    14     1     2    1
    15     2     3    1
    16     3     4    1
    17     4     5    1
    18     5     8    1
    19     8     9   ar
    20     9    10   ar
    21    10    11   ar
    22    11    12   ar
    23    12    13   ar
    24    13    14    1
    25    13    15   ar
    26    15    16   ar
    27    16    17   ar
    28     5     6    1
    29     6     7    1
    30    30    31   ar
    31    31    32   ar
    32    32    33   ar
    33    33    23   ar
    34    33    28   ar
    35     7     2    1
    36    17     8   ar
    37    17    11   ar
@<TRIPOS>MOLECULE
*****
 33 37 0 0 0
SMALL
GASTEIGER

@<TRIPOS>ATOM
      1 C         138.9412  139.2937  159.8914 C.3     1  UNL1        0.0722
      2 N         138.8183  139.2781  161.3863 N.3     1  UNL1       -0.2727
      3 C         138.0679  140.3707  162.0886 C.3     1  UNL1        0.0725
      4 C         137.9450  140.3550  163.5835 C.3     1  UNL1        0.0234
      5 C         138.5726  139.2468  164.3760 C.3     1  UNL1        0.0464
      6 C         139.3230  138.1543  163.6737 C.3     1  UNL1        0.0234
      7 C         139.4458  138.1699  162.1788 C.3     1  UNL1        0.0725
      8 C         138.4497  139.2311  165.8709 C.ar    1  UNL1        0.1003
      9 N         137.5503  138.3373  166.6724 N.ar    1  UNL1       -0.0814
     10 O         137.7494  138.6603  168.1236 O.2     1  UNL1       -0.3536
     11 C         138.7719  139.7537  168.2191 C.ar    1  UNL1        0.1787
     12 C         139.3647  140.4736  169.3939 C.ar    1  UNL1        0.0698
     13 C         140.3904  141.5464  169.1764 C.ar    1  UNL1        0.1433
     14 F         140.9832  142.2664  170.3512 F       1  UNL1       -0.2041
     15 C         140.8232  141.8991  167.7842 C.ar    1  UNL1        0.0299
     16 C         140.2303  141.1792  166.6094 C.ar    1  UNL1        0.0067
     17 C         139.2047  140.1064  166.8269 C.ar    1  UNL1        0.0540
     18 C         140.0908  138.5968  159.2260 C.3     1  UNL1        0.0212
     19 C         141.1913  139.3987  158.5967 C.3     1  UNL1        0.0488
     20 C         142.4585  138.7228  158.1639 C.3     1  UNL1        0.2054
     21 O         143.7088  138.8817  158.9772 O.3     1  UNL1       -0.4754
     22 C         142.8861  138.7186  165.7997 C.3     1  UNL1        0.0313
     23 C         143.3410  139.8224  164.8916 C.ar    1  UNL1       -0.0125
     24 C         143.7040  141.1614  165.4620 C.ar    1  UNL1        0.0781
     25 C         144.1589  142.2652  164.5539 C.ar    1  UNL1        0.3456
     26 O         144.5218  143.6042  165.1244 O.2     1  UNL1       -0.2445
     27 O         144.2508  142.0300  163.0753 O.2     1  UNL1       -0.4209
     28 C         143.8879  140.6910  162.5048 C.ar    1  UNL1        0.1514
     29 C         143.9798  140.4559  161.0263 C.ar    1  UNL1        0.0744
     30 C         143.6169  139.1169  160.4558 C.ar    1  UNL1        0.1416
     31 C         143.1620  138.0131  161.3640 C.ar    1  UNL1        0.0371
     32 C         143.0700  138.2483  162.8425 C.ar    1  UNL1        0.0058
     33 C         143.4330  139.5872  163.4130 C.ar    1  UNL1        0.0311
@<TRIPOS>BOND
     1    22    23    1
     2    23    24   ar
     3    24    25   ar
     4    25    26    2
     5    25    27   ar
     6    27    28   ar
     7    28    29   ar
     8    29    30   ar
     9    30    21    1
    10    21    20    1
    11    20    19    1
    12    19    18    1
    13    18     1    1
    14     1     2    1
    15     2     3    1
    16     3     4    1
    17     4     5    1
    18     5     8    1
    19     8     9   ar
    20     9    10   ar
    21    10    11   ar
    22    11    12   ar
    23    12    13   ar
    24    13    14    1
    25    13    15   ar
    26    15    16   ar
    27    16    17   ar
    28     5     6    1
    29     6     7    1
    30    30    31   ar
    31    31    32   ar
    32    32    33   ar
    33    33    23   ar
    34    33    28   ar
    35     7     2    1
    36    17     8   ar
    37    17    11   ar
