@<TRIPOS>MOLECULE
*****
 22 24 0 0 0
SMALL
GASTEIGER

@<TRIPOS>ATOM
      1 C         140.1649  144.4178  164.3724 C.ar    1  UNL1        0.0952
      2 C         141.0224  143.3609  165.0030 C.ar    1  UNL1        0.0146
      3 C         142.3940  143.4584  164.4039 C.ar    1  UNL1        0.0369
      4 S         142.3844  144.5756  163.4030 S.2     1  UNL1       -0.0721
      5 C         141.0067  145.1685  163.3836 C.ar    1  UNL1        0.0782
      6 N         140.5509  146.3115  162.5258 N.pl3   1  UNL1       -0.3519
      7 H         141.1810  146.7420  161.9038 H       1  UNL1        0.1428
      8 H         139.6216  146.6312  162.5848 H       1  UNL1        0.1428
      9 C         140.5848  142.3789  166.0492 C.ar    1  UNL1        0.0040
     10 C         139.8624  141.1273  165.6475 C.ar    1  UNL1        0.0033
     11 C         139.4249  140.1453  166.6936 C.ar    1  UNL1        0.0402
     12 C         139.7099  140.4150  168.1414 C.ar    1  UNL1        0.1764
     13 C         140.4324  141.6666  168.5431 C.ar    1  UNL1        0.1764
     14 C         140.8699  142.6486  167.4970 C.ar    1  UNL1        0.0402
     15 O         140.5719  141.6623  170.0366 O.3     1  UNL1       -0.4346
     16 C         139.9357  140.4080  170.5579 C.3     1  UNL1        0.4294
     17 O         139.4029  139.6371  169.3866 O.3     1  UNL1       -0.4346
     18 C         138.7195  144.6783  164.6771 C.2     1  UNL1        0.3429
     19 O         138.3250  145.2556  166.0042 O.2     1  UNL1       -0.2448
     20 O         137.6686  144.3616  163.6548 O.3     1  UNL1       -0.4454
     21 C         137.3457  141.8347  163.1441 C.3     1  UNL1        0.0513
     22 C         137.8453  143.1890  162.7362 C.3     1  UNL1        0.2089
@<TRIPOS>BOND
     1    21    22    1
     2    22    20    1
     3    20    18    1
     4    18    19    2
     5    18     1    1
     6     1     2   ar
     7     2     9    1
     8     9    10   ar
     9    10    11   ar
    10    11    12   ar
    11    12    13   ar
    12    13    14   ar
    13    13    15    1
    14    15    16    1
    15    16    17    1
    16     2     3   ar
    17     3     4   ar
    18     4     5   ar
    19     5     6    1
    20     5     1   ar
    21    14     9   ar
    22    17    12    1
    23     6     7    1
    24     6     8    1
@<TRIPOS>MOLECULE
*****
 22 24 0 0 0
SMALL
GASTEIGER

@<TRIPOS>ATOM
      1 C         141.8110  139.9687  168.9110 C.ar    1  UNL1        0.0952
      2 C         140.4032  140.4373  168.6906 C.ar    1  UNL1        0.0146
      3 C         139.8623  140.9146  170.0057 C.ar    1  UNL1        0.0369
      4 S         140.9358  140.7409  171.0389 S.2     1  UNL1       -0.0721
      5 C         142.1401  140.1564  170.3623 C.ar    1  UNL1        0.0782
      6 N         143.4446  139.8187  171.0213 N.pl3   1  UNL1       -0.3519
      7 H         143.5652  139.9792  171.9851 H       1  UNL1        0.1428
      8 H         144.1801  139.4366  170.4901 H       1  UNL1        0.1428
      9 C         139.6657  140.4299  167.3843 C.ar    1  UNL1        0.0040
     10 C         138.7769  139.2744  167.0314 C.ar    1  UNL1        0.0033
     11 C         138.0395  139.2670  165.7252 C.ar    1  UNL1        0.0402
     12 C         138.1910  140.4151  164.7719 C.ar    1  UNL1        0.1764
     13 C         139.0799  141.5707  165.1248 C.ar    1  UNL1        0.1764
     14 C         139.8173  141.5781  166.4310 C.ar    1  UNL1        0.0402
     15 O         139.0329  142.5542  163.9932 O.3     1  UNL1       -0.4346
     16 C         138.1149  142.0065  162.9410 C.3     1  UNL1        0.4294
     17 O         137.5946  140.6845  163.4222 O.3     1  UNL1       -0.4346
     18 C         142.7285  139.4104  167.8638 C.2     1  UNL1        0.3429
     19 O         143.5155  138.1644  168.1433 O.2     1  UNL1       -0.2448
     20 O         142.8590  140.0982  166.5372 O.3     1  UNL1       -0.4454
     21 C         141.7431  138.2393  165.1056 C.3     1  UNL1        0.0513
     22 C         142.7909  139.3002  165.2689 C.3     1  UNL1        0.2089
@<TRIPOS>BOND
     1    21    22    1
     2    22    20    1
     3    20    18    1
     4    18    19    2
     5    18     1    1
     6     1     2   ar
     7     2     9    1
     8     9    10   ar
     9    10    11   ar
    10    11    12   ar
    11    12    13   ar
    12    13    14   ar
    13    13    15    1
    14    15    16    1
    15    16    17    1
    16     2     3   ar
    17     3     4   ar
    18     4     5   ar
    19     5     6    1
    20     5     1   ar
    21    14     9   ar
    22    17    12    1
    23     6     7    1
    24     6     8    1
@<TRIPOS>MOLECULE
*****
 22 24 0 0 0
SMALL
GASTEIGER

@<TRIPOS>ATOM
      1 C         140.1295  140.7965  168.8877 C.ar    1  UNL1        0.0952
      2 C         140.7982  142.0681  168.4566 C.ar    1  UNL1        0.0146
      3 C         141.4038  142.7080  169.6706 C.ar    1  UNL1        0.0369
      4 S         141.1094  141.8318  170.8520 S.2     1  UNL1       -0.0721
      5 C         140.3219  140.6504  170.3681 C.ar    1  UNL1        0.0782
      6 N         139.8157  139.5213  171.2158 N.pl3   1  UNL1       -0.3519
      7 H         139.9938  139.5144  172.1840 H       1  UNL1        0.1428
      8 H         139.3053  138.7870  170.8040 H       1  UNL1        0.1428
      9 C         140.8518  142.6055  167.0572 C.ar    1  UNL1        0.0040
     10 C         142.0259  142.2923  166.1779 C.ar    1  UNL1        0.0033
     11 C         142.0795  142.8297  164.7786 C.ar    1  UNL1        0.0402
     12 C         140.9589  143.6804  164.2584 C.ar    1  UNL1        0.1764
     13 C         139.7847  143.9937  165.1377 C.ar    1  UNL1        0.1764
     14 C         139.7311  143.4563  166.5371 C.ar    1  UNL1        0.0402
     15 O         138.8360  144.8527  164.3554 O.3     1  UNL1       -0.4346
     16 C         139.4238  145.0703  162.9927 C.3     1  UNL1        0.4294
     17 O         140.7359  144.3458  162.9327 O.3     1  UNL1       -0.4346
     18 C         139.3971  139.8390  167.9951 C.2     1  UNL1        0.3429
     19 O         138.1477  139.1664  168.4814 O.2     1  UNL1       -0.2448
     20 O         139.9142  139.5541  166.6162 O.3     1  UNL1       -0.4454
     21 C         138.2962  140.5137  164.8242 C.3     1  UNL1        0.0513
     22 C         138.9534  139.3382  165.4847 C.3     1  UNL1        0.2089
@<TRIPOS>BOND
     1    21    22    1
     2    22    20    1
     3    20    18    1
     4    18    19    2
     5    18     1    1
     6     1     2   ar
     7     2     9    1
     8     9    10   ar
     9    10    11   ar
    10    11    12   ar
    11    12    13   ar
    12    13    14   ar
    13    13    15    1
    14    15    16    1
    15    16    17    1
    16     2     3   ar
    17     3     4   ar
    18     4     5   ar
    19     5     6    1
    20     5     1   ar
    21    14     9   ar
    22    17    12    1
    23     6     7    1
    24     6     8    1
@<TRIPOS>MOLECULE
*****
 22 24 0 0 0
SMALL
GASTEIGER

@<TRIPOS>ATOM
      1 C         140.0928  140.0473  168.4817 C.ar    1  UNL1        0.0952
      2 C         141.5685  140.3107  168.4278 C.ar    1  UNL1        0.0146
      3 C         142.0219  140.6923  169.8057 C.ar    1  UNL1        0.0369
      4 S         140.8265  140.6649  170.7113 S.2     1  UNL1       -0.0721
      5 C         139.6342  140.2662  169.8930 C.ar    1  UNL1        0.0782
      6 N         138.2299  140.1134  170.3974 N.pl3   1  UNL1       -0.3519
      7 H         138.0268  140.2801  171.3462 H       1  UNL1        0.1428
      8 H         137.5113  139.8462  169.7798 H       1  UNL1        0.1428
      9 C         142.4382  140.2101  167.2096 C.ar    1  UNL1        0.0040
     10 C         142.9150  138.8687  166.7373 C.ar    1  UNL1        0.0033
     11 C         143.7846  138.7680  165.5192 C.ar    1  UNL1        0.0402
     12 C         144.1773  140.0088  164.7735 C.ar    1  UNL1        0.1764
     13 C         143.7005  141.3503  165.2459 C.ar    1  UNL1        0.1764
     14 C         142.8309  141.4510  166.4639 C.ar    1  UNL1        0.0402
     15 O         144.2462  142.3909  164.3135 O.3     1  UNL1       -0.4346
     16 C         145.0604  141.6926  163.2650 C.3     1  UNL1        0.4294
     17 O         145.0178  140.2204  163.5493 O.3     1  UNL1       -0.4346
     18 C         139.2276  139.6371  167.3271 C.2     1  UNL1        0.3429
     19 O         138.0263  138.7699  167.5610 O.2     1  UNL1       -0.2448
     20 O         139.5638  140.0941  165.9386 O.3     1  UNL1       -0.4454
     21 C         139.9677  137.7952  164.7975 C.3     1  UNL1        0.0513
     22 C         139.3641  139.1682  164.7754 C.3     1  UNL1        0.2089
@<TRIPOS>BOND
     1    21    22    1
     2    22    20    1
     3    20    18    1
     4    18    19    2
     5    18     1    1
     6     1     2   ar
     7     2     9    1
     8     9    10   ar
     9    10    11   ar
    10    11    12   ar
    11    12    13   ar
    12    13    14   ar
    13    13    15    1
    14    15    16    1
    15    16    17    1
    16     2     3   ar
    17     3     4   ar
    18     4     5   ar
    19     5     6    1
    20     5     1   ar
    21    14     9   ar
    22    17    12    1
    23     6     7    1
    24     6     8    1
@<TRIPOS>MOLECULE
*****
 22 24 0 0 0
SMALL
GASTEIGER

@<TRIPOS>ATOM
      1 C         141.6491  139.7005  168.2432 C.ar    1  UNL1        0.0952
      2 C         140.2306  140.0101  167.8663 C.ar    1  UNL1        0.0146
      3 C         139.4637  140.2775  169.1273 C.ar    1  UNL1        0.0369
      4 S         140.4082  140.1332  170.2837 S.2     1  UNL1       -0.0721
      5 C         141.7588  139.7767  169.7372 C.ar    1  UNL1        0.0782
      6 N         143.0011  139.5381  170.5433 N.pl3   1  UNL1       -0.3519
      7 H         142.9729  139.6118  171.5246 H       1  UNL1        0.1428
      8 H         143.8447  139.3078  170.0910 H       1  UNL1        0.1428
      9 C         139.6763  140.0459  166.4728 C.ar    1  UNL1        0.0040
     10 C         139.3198  141.3587  165.8410 C.ar    1  UNL1        0.0033
     11 C         138.7655  141.3945  164.4476 C.ar    1  UNL1        0.0402
     12 C         138.5679  140.1175  163.6861 C.ar    1  UNL1        0.1764
     13 C         138.9244  138.8046  164.3179 C.ar    1  UNL1        0.1764
     14 C         139.4786  138.7687  165.7112 C.ar    1  UNL1        0.0402
     15 O         138.6217  137.7173  163.3299 O.3     1  UNL1       -0.4346
     16 C         138.0781  138.3582  162.0874 C.3     1  UNL1        0.4294
     17 O         138.0448  139.8416  162.3075 O.3     1  UNL1       -0.4346
     18 C         142.7624  139.3725  167.2929 C.2     1  UNL1        0.3429
     19 O         143.6723  138.2139  167.5750 O.2     1  UNL1       -0.2448
     20 O         142.9656  140.2030  166.0606 O.3     1  UNL1       -0.4454
     21 C         144.8251  139.4500  164.4096 C.3     1  UNL1        0.0513
     22 C         143.3733  139.5486  164.7739 C.3     1  UNL1        0.2089
@<TRIPOS>BOND
     1    21    22    1
     2    22    20    1
     3    20    18    1
     4    18    19    2
     5    18     1    1
     6     1     2   ar
     7     2     9    1
     8     9    10   ar
     9    10    11   ar
    10    11    12   ar
    11    12    13   ar
    12    13    14   ar
    13    13    15    1
    14    15    16    1
    15    16    17    1
    16     2     3   ar
    17     3     4   ar
    18     4     5   ar
    19     5     6    1
    20     5     1   ar
    21    14     9   ar
    22    17    12    1
    23     6     7    1
    24     6     8    1
@<TRIPOS>MOLECULE
*****
 22 24 0 0 0
SMALL
GASTEIGER

@<TRIPOS>ATOM
      1 C         140.2221  140.7538  168.9082 C.ar    1  UNL1        0.0952
      2 C         140.9581  141.9966  168.5034 C.ar    1  UNL1        0.0146
      3 C         141.5186  142.6279  169.7432 C.ar    1  UNL1        0.0369
      4 S         141.1291  141.7753  170.9143 S.2     1  UNL1       -0.0721
      5 C         140.3279  140.6170  170.3981 C.ar    1  UNL1        0.0782
      6 N         139.7362  139.5154  171.2266 N.pl3   1  UNL1       -0.3519
      7 H         139.8606  139.5128  172.2032 H       1  UNL1        0.1428
      8 H         139.2234  138.7950  170.7937 H       1  UNL1        0.1428
      9 C         141.1073  142.5167  167.1043 C.ar    1  UNL1        0.0040
     10 C         139.9664  143.2332  166.4449 C.ar    1  UNL1        0.0033
     11 C         140.1156  143.7533  165.0459 C.ar    1  UNL1        0.0402
     12 C         141.4057  143.5569  164.3063 C.ar    1  UNL1        0.1764
     13 C         142.5467  142.8404  164.9658 C.ar    1  UNL1        0.1764
     14 C         142.3975  142.3203  166.3648 C.ar    1  UNL1        0.0402
     15 O         143.6896  142.7968  163.9953 O.3     1  UNL1       -0.4346
     16 C         143.2550  143.4863  162.7361 C.3     1  UNL1        0.4294
     17 O         141.8435  143.9561  162.9283 O.3     1  UNL1       -0.4346
     18 C         139.5062  139.8129  167.9850 C.2     1  UNL1        0.3429
     19 O         138.2148  139.1807  168.4122 O.2     1  UNL1       -0.2448
     20 O         140.0817  139.5043  166.6347 O.3     1  UNL1       -0.4454
     21 C         138.2130  140.2883  165.0089 C.3     1  UNL1        0.0513
     22 C         139.1698  139.2315  165.4753 C.3     1  UNL1        0.2089
@<TRIPOS>BOND
     1    21    22    1
     2    22    20    1
     3    20    18    1
     4    18    19    2
     5    18     1    1
     6     1     2   ar
     7     2     9    1
     8     9    10   ar
     9    10    11   ar
    10    11    12   ar
    11    12    13   ar
    12    13    14   ar
    13    13    15    1
    14    15    16    1
    15    16    17    1
    16     2     3   ar
    17     3     4   ar
    18     4     5   ar
    19     5     6    1
    20     5     1   ar
    21    14     9   ar
    22    17    12    1
    23     6     7    1
    24     6     8    1
@<TRIPOS>MOLECULE
*****
 22 24 0 0 0
SMALL
GASTEIGER

@<TRIPOS>ATOM
      1 C         142.7219  139.9689  168.1623 C.ar    1  UNL1        0.0952
      2 C         142.5000  141.4431  167.9964 C.ar    1  UNL1        0.0146
      3 C         142.2801  142.0348  169.3571 C.ar    1  UNL1        0.0369
      4 S         142.3661  140.9262  170.3640 S.2     1  UNL1       -0.0721
      5 C         142.6391  139.6495  169.6255 C.ar    1  UNL1        0.0782
      6 N         142.8010  138.2917  170.2421 N.pl3   1  UNL1       -0.3519
      7 H         142.7291  138.1824  171.2178 H       1  UNL1        0.1428
      8 H         142.9791  137.5098  169.6710 H       1  UNL1        0.1428
      9 C         142.4983  142.1938  166.6977 C.ar    1  UNL1        0.0040
     10 C         143.7835  142.7282  166.1386 C.ar    1  UNL1        0.0033
     11 C         143.7818  143.4789  164.8400 C.ar    1  UNL1        0.0402
     12 C         142.4949  143.6951  164.1004 C.ar    1  UNL1        0.1764
     13 C         141.2096  143.1607  164.6595 C.ar    1  UNL1        0.1764
     14 C         141.2113  142.4101  165.9581 C.ar    1  UNL1        0.0402
     15 O         140.1049  143.5265  163.7131 O.3     1  UNL1       -0.4346
     16 C         140.7073  144.2870  162.5691 C.3     1  UNL1        0.4294
     17 O         142.1845  144.3912  162.8085 O.3     1  UNL1       -0.4346
     18 C         142.9810  138.9866  167.0587 C.2     1  UNL1        0.3429
     19 O         143.9889  137.8923  167.2500 O.2     1  UNL1       -0.2448
     20 O         142.2323  139.0986  165.7638 O.3     1  UNL1       -0.4454
     21 C         144.4404  139.5988  164.4894 C.3     1  UNL1        0.0513
     22 C         142.9832  139.2434  164.4734 C.3     1  UNL1        0.2089
@<TRIPOS>BOND
     1    21    22    1
     2    22    20    1
     3    20    18    1
     4    18    19    2
     5    18     1    1
     6     1     2   ar
     7     2     9    1
     8     9    10   ar
     9    10    11   ar
    10    11    12   ar
    11    12    13   ar
    12    13    14   ar
    13    13    15    1
    14    15    16    1
    15    16    17    1
    16     2     3   ar
    17     3     4   ar
    18     4     5   ar
    19     5     6    1
    20     5     1   ar
    21    14     9   ar
    22    17    12    1
    23     6     7    1
    24     6     8    1
@<TRIPOS>MOLECULE
*****
 22 24 0 0 0
SMALL
GASTEIGER

@<TRIPOS>ATOM
      1 C         138.9930  142.6559  164.2931 C.ar    1  UNL1        0.0952
      2 C         139.1997  141.2085  164.6282 C.ar    1  UNL1        0.0146
      3 C         138.2421  140.4005  163.8036 C.ar    1  UNL1        0.0369
      4 S         137.4435  141.3485  162.9588 S.2     1  UNL1       -0.0721
      5 C         137.9077  142.7424  163.2614 C.ar    1  UNL1        0.0782
      6 N         137.3792  144.0017  162.6411 N.pl3   1  UNL1       -0.3519
      7 H         136.6615  143.9557  161.9688 H       1  UNL1        0.1428
      8 H         137.7501  144.8743  162.9062 H       1  UNL1        0.1428
      9 C         140.1902  140.6647  165.6148 C.ar    1  UNL1        0.0040
     10 C         141.5290  140.1797  165.1436 C.ar    1  UNL1        0.0033
     11 C         142.5195  139.6358  166.1301 C.ar    1  UNL1        0.0402
     12 C         142.1710  139.5770  167.5879 C.ar    1  UNL1        0.1764
     13 C         140.8320  140.0620  168.0591 C.ar    1  UNL1        0.1764
     14 C         139.8416  140.6058  167.0726 C.ar    1  UNL1        0.0402
     15 O         140.7707  139.8809  169.5469 O.3     1  UNL1       -0.4346
     16 C         142.0718  139.2840  169.9952 C.3     1  UNL1        0.4294
     17 O         142.9372  139.0962  168.7845 O.3     1  UNL1       -0.4346
     18 C         139.7405  143.8136  164.8857 C.2     1  UNL1        0.3429
     19 O         139.0024  145.0557  165.2885 O.2     1  UNL1       -0.2448
     20 O         141.2260  143.7291  165.0754 O.3     1  UNL1       -0.4454
     21 C         143.0571  145.0946  163.8375 C.3     1  UNL1        0.0513
     22 C         142.1432  143.9069  163.9019 C.3     1  UNL1        0.2089
@<TRIPOS>BOND
     1    21    22    1
     2    22    20    1
     3    20    18    1
     4    18    19    2
     5    18     1    1
     6     1     2   ar
     7     2     9    1
     8     9    10   ar
     9    10    11   ar
    10    11    12   ar
    11    12    13   ar
    12    13    14   ar
    13    13    15    1
    14    15    16    1
    15    16    17    1
    16     2     3   ar
    17     3     4   ar
    18     4     5   ar
    19     5     6    1
    20     5     1   ar
    21    14     9   ar
    22    17    12    1
    23     6     7    1
    24     6     8    1
@<TRIPOS>MOLECULE
*****
 22 24 0 0 0
SMALL
GASTEIGER

@<TRIPOS>ATOM
      1 C         142.5015  143.6831  164.5636 C.ar    1  UNL1        0.0952
      2 C         141.0662  143.3776  164.8745 C.ar    1  UNL1        0.0146
      3 C         140.2082  144.2469  164.0038 C.ar    1  UNL1        0.0369
      4 S         141.1131  145.0897  163.1549 S.2     1  UNL1       -0.0721
      5 C         142.5304  144.7413  163.5009 C.ar    1  UNL1        0.0782
      6 N         143.7608  145.3450  162.8911 N.pl3   1  UNL1       -0.3519
      7 H         143.6768  146.0372  162.1962 H       1  UNL1        0.1428
      8 H         144.6522  145.0490  163.1859 H       1  UNL1        0.1428
      9 C         140.5752  142.3781  165.8795 C.ar    1  UNL1        0.0040
     10 C         139.9333  141.1035  165.4178 C.ar    1  UNL1        0.0033
     11 C         139.4424  140.1041  166.4229 C.ar    1  UNL1        0.0402
     12 C         139.5933  140.3793  167.8896 C.ar    1  UNL1        0.1764
     13 C         140.2352  141.6540  168.3514 C.ar    1  UNL1        0.1764
     14 C         140.7262  142.6534  167.3464 C.ar    1  UNL1        0.0402
     15 O         140.2468  141.6503  169.8513 O.3     1  UNL1       -0.4346
     16 C         139.6121  140.3733  170.3166 C.3     1  UNL1        0.4294
     17 O         139.2082  139.5878  169.1042 O.3     1  UNL1       -0.4346
     18 C         143.6978  143.0429  165.2032 C.2     1  UNL1        0.3429
     19 O         144.8665  143.8858  165.6198 O.2     1  UNL1       -0.2448
     20 O         143.7252  141.5599  165.4262 O.3     1  UNL1       -0.4454
     21 C         143.7122  139.5511  163.7785 C.3     1  UNL1        0.0513
     22 C         144.4459  140.6692  164.4580 C.3     1  UNL1        0.2089
@<TRIPOS>BOND
     1    21    22    1
     2    22    20    1
     3    20    18    1
     4    18    19    2
     5    18     1    1
     6     1     2   ar
     7     2     9    1
     8     9    10   ar
     9    10    11   ar
    10    11    12   ar
    11    12    13   ar
    12    13    14   ar
    13    13    15    1
    14    15    16    1
    15    16    17    1
    16     2     3   ar
    17     3     4   ar
    18     4     5   ar
    19     5     6    1
    20     5     1   ar
    21    14     9   ar
    22    17    12    1
    23     6     7    1
    24     6     8    1
