@<TRIPOS>MOLECULE
*****
 38 40 0 0 0
SMALL
GASTEIGER

@<TRIPOS>ATOM
      1 N         140.1389  137.9735  162.0595 N.3     1  UNL1       -0.2665
      2 C         141.4091  138.5392  161.4967 C.3     1  UNL1        0.1058
      3 C         142.2858  139.4078  162.3494 C.3     1  UNL1        0.1700
      4 O         142.0600  140.8901  162.3910 O.3     1  UNL1       -0.3793
      5 H         141.3147  141.1199  161.8143 H       1  UNL1        0.2106
      6 C         143.3883  138.7939  163.1604 C.3     1  UNL1        0.2358
      7 O         144.1932  139.6449  164.0974 O.3     1  UNL1       -0.4728
      8 C         142.5109  140.7796  168.1139 C.ar    1  UNL1        0.0646
      9 C         142.7881  139.3401  167.7965 C.ar    1  UNL1        0.0190
     10 C         143.3489  138.9618  166.4576 C.ar    1  UNL1        0.0382
     11 C         143.6324  140.0231  165.4363 C.ar    1  UNL1        0.1388
     12 C         143.3552  141.4627  165.7537 C.ar    1  UNL1        0.0382
     13 C         142.7944  141.8409  167.0926 C.ar    1  UNL1        0.0190
     14 N         141.9502  141.1579  169.4528 N.pl3   1  UNL1       -0.2187
     15 H         142.0410  140.5427  170.2161 H       1  UNL1        0.1734
     16 C         140.5520  143.7888  169.8046 C.3     1  UNL1        0.1996
     17 S         141.2511  142.4733  169.6287 S.O2    1  UNL1        0.0558
     18 O         142.5215  143.0791  170.1473 O.2     1  UNL1       -0.1544
     19 O         139.9807  141.8675  169.1100 O.2     1  UNL1       -0.1544
     20 C         138.8615  138.0777  161.2802 C.3     1  UNL1        0.0771
     21 C         137.7319  138.9163  161.8004 C.3     1  UNL1        0.0437
     22 C         137.9326  140.3848  162.0316 C.ar    1  UNL1       -0.0199
     23 C         137.3807  141.0317  163.2672 C.ar    1  UNL1       -0.0033
     24 C         137.5814  142.5001  163.4984 C.ar    1  UNL1        0.0119
     25 C         138.3341  143.3215  162.4940 C.ar    1  UNL1        0.0682
     26 CL        138.5349  144.7900  162.7253 Cl      1  UNL1       -0.0814
     27 C         138.8860  142.6745  161.2584 C.ar    1  UNL1        0.0679
     28 CL        139.6387  143.4959  160.2540 Cl      1  UNL1       -0.0814
     29 C         138.6853  141.2061  161.0272 C.ar    1  UNL1        0.0080
     30 C         140.1462  137.3037  163.4017 C.3     1  UNL1        0.0993
     31 C         139.5688  138.0071  164.5940 C.ar    1  UNL1       -0.0031
     32 C         140.0691  139.3686  164.9766 C.ar    1  UNL1       -0.0027
     33 C         139.4917  140.0720  166.1690 C.ar    1  UNL1        0.0028
     34 C         138.4140  139.4140  166.9788 C.ar    1  UNL1        0.0366
     35 C         137.9138  138.0527  166.5962 C.ar    1  UNL1        0.1334
     36 O         136.8361  137.3947  167.4060 O.3     1  UNL1       -0.5055
     37 C         138.4912  137.3492  165.4038 C.ar    1  UNL1        0.0337
     38 H         136.4755  137.8342  168.1508 H       1  UNL1        0.2922
@<TRIPOS>BOND
     1    16    17    1
     2    17    18    2
     3    17    19    2
     4    17    14    1
     5    14     8    1
     6     8     9   ar
     7     9    10   ar
     8    10    11   ar
     9    11     7    1
    10     7     6    1
    11     6     3    1
    12     3     4    1
    13     3     2    1
    14     2     1    1
    15     1    20    1
    16    20    21    1
    17    21    22    1
    18    22    23   ar
    19    23    24   ar
    20    24    25   ar
    21    25    26    1
    22    25    27   ar
    23    27    28    1
    24    27    29   ar
    25     1    30    1
    26    30    31    1
    27    31    32   ar
    28    32    33   ar
    29    33    34   ar
    30    34    35   ar
    31    35    36    1
    32    35    37   ar
    33    11    12   ar
    34    12    13   ar
    35    13     8   ar
    36    29    22   ar
    37    37    31   ar
    38    14    15    1
    39     4     5    1
    40    36    38    1
@<TRIPOS>MOLECULE
*****
 38 40 0 0 0
SMALL
GASTEIGER

@<TRIPOS>ATOM
      1 N         140.2597  139.8736  160.5091 N.3     1  UNL1       -0.2665
      2 C         140.1409  138.3985  160.7538 C.3     1  UNL1        0.1058
      3 C         141.0073  137.7371  161.7844 C.3     1  UNL1        0.1700
      4 O         142.3542  137.2009  161.3996 O.3     1  UNL1       -0.3793
      5 H         142.5088  137.3622  160.4557 H       1  UNL1        0.2106
      6 C         140.5266  137.6119  163.1998 C.3     1  UNL1        0.2358
      7 O         141.4821  137.8187  164.3374 O.3     1  UNL1       -0.4728
      8 C         140.2394  140.2668  167.9029 C.ar    1  UNL1        0.0646
      9 C         139.2074  139.7883  166.9252 C.ar    1  UNL1        0.0190
     10 C         139.6216  138.9722  165.7367 C.ar    1  UNL1        0.0382
     11 C         141.0678  138.6347  165.5259 C.ar    1  UNL1        0.1388
     12 C         142.0999  139.1133  166.5036 C.ar    1  UNL1        0.0382
     13 C         141.6857  139.9293  167.6921 C.ar    1  UNL1        0.0190
     14 N         139.8252  141.0829  169.0914 N.pl3   1  UNL1       -0.2187
     15 H         138.9953  140.8641  169.5736 H       1  UNL1        0.1734
     16 C         141.5258  143.3818  169.9988 C.3     1  UNL1        0.1996
     17 S         140.6755  142.2323  169.5450 S.O2    1  UNL1        0.0558
     18 O         140.9994  141.4935  170.8096 O.2     1  UNL1       -0.1544
     19 O         140.3515  142.9711  168.2804 O.2     1  UNL1       -0.1544
     20 C         139.0557  140.6635  160.0890 C.3     1  UNL1        0.0771
     21 C         137.9313  140.8883  161.0561 C.3     1  UNL1        0.0437
     22 C         138.0691  141.9152  162.1408 C.ar    1  UNL1       -0.0199
     23 C         137.6551  141.5841  163.5440 C.ar    1  UNL1       -0.0033
     24 C         137.7929  142.6110  164.6286 C.ar    1  UNL1        0.0119
     25 C         138.3446  143.9690  164.3101 C.ar    1  UNL1        0.0682
     26 CL        138.4823  144.9959  165.3948 Cl      1  UNL1       -0.0814
     27 C         138.7585  144.3001  162.9069 C.ar    1  UNL1        0.0679
     28 CL        139.3102  145.6581  162.5884 Cl      1  UNL1       -0.0814
     29 C         138.6208  143.2732  161.8223 C.ar    1  UNL1        0.0080
     30 C         141.5825  140.5589  160.6845 C.3     1  UNL1        0.0993
     31 C         141.7702  141.5552  161.7899 C.ar    1  UNL1       -0.0031
     32 C         141.4040  141.1909  163.1982 C.ar    1  UNL1       -0.0027
     33 C         141.5918  142.1872  164.3037 C.ar    1  UNL1        0.0028
     34 C         142.1457  143.5480  164.0008 C.ar    1  UNL1        0.0366
     35 C         142.5119  143.9123  162.5926 C.ar    1  UNL1        0.1334
     36 O         143.0658  145.2729  162.2898 O.3     1  UNL1       -0.5055
     37 C         142.3241  142.9159  161.4871 C.ar    1  UNL1        0.0337
     38 H         143.1831  145.8953  162.9803 H       1  UNL1        0.2922
@<TRIPOS>BOND
     1    16    17    1
     2    17    18    2
     3    17    19    2
     4    17    14    1
     5    14     8    1
     6     8     9   ar
     7     9    10   ar
     8    10    11   ar
     9    11     7    1
    10     7     6    1
    11     6     3    1
    12     3     4    1
    13     3     2    1
    14     2     1    1
    15     1    20    1
    16    20    21    1
    17    21    22    1
    18    22    23   ar
    19    23    24   ar
    20    24    25   ar
    21    25    26    1
    22    25    27   ar
    23    27    28    1
    24    27    29   ar
    25     1    30    1
    26    30    31    1
    27    31    32   ar
    28    32    33   ar
    29    33    34   ar
    30    34    35   ar
    31    35    36    1
    32    35    37   ar
    33    11    12   ar
    34    12    13   ar
    35    13     8   ar
    36    29    22   ar
    37    37    31   ar
    38    14    15    1
    39     4     5    1
    40    36    38    1
@<TRIPOS>MOLECULE
*****
 38 40 0 0 0
SMALL
GASTEIGER

@<TRIPOS>ATOM
      1 N         138.0439  142.7942  162.9784 N.3     1  UNL1       -0.2665
      2 C         137.7327  141.6274  163.8682 C.3     1  UNL1        0.1058
      3 C         137.7992  140.2309  163.3245 C.3     1  UNL1        0.1700
      4 O         137.2446  139.9286  161.9640 O.3     1  UNL1       -0.3793
      5 H         136.8831  140.7401  161.5745 H       1  UNL1        0.2106
      6 C         138.4203  139.1369  164.1413 C.3     1  UNL1        0.2358
      7 O         139.9117  138.9815  164.1765 O.3     1  UNL1       -0.4728
      8 C         142.1675  139.7755  167.9884 C.ar    1  UNL1        0.0646
      9 C         142.8881  139.2341  166.7895 C.ar    1  UNL1        0.0190
     10 C         142.1361  138.9694  165.5188 C.ar    1  UNL1        0.0382
     11 C         140.6637  139.2462  165.4471 C.ar    1  UNL1        0.1388
     12 C         139.9431  139.7876  166.6461 C.ar    1  UNL1        0.0382
     13 C         140.6950  140.0523  167.9168 C.ar    1  UNL1        0.0190
     14 N         142.9194  140.0402  169.2591 N.pl3   1  UNL1       -0.2187
     15 H         143.4957  139.3414  169.6448 H       1  UNL1        0.1734
     16 C         142.6672  142.6992  170.6253 C.3     1  UNL1        0.1996
     17 S         142.7933  141.3697  169.9422 S.O2    1  UNL1        0.0558
     18 O         142.1518  140.7024  171.1224 O.2     1  UNL1       -0.1544
     19 O         143.4349  142.0369  168.7619 O.2     1  UNL1       -0.1544
     20 C         137.9022  144.1936  163.4996 C.3     1  UNL1        0.0771
     21 C         138.7827  144.6708  164.6163 C.3     1  UNL1        0.0437
     22 C         140.2215  144.2499  164.6690 C.ar    1  UNL1       -0.0199
     23 C         140.6301  143.0794  165.5133 C.ar    1  UNL1       -0.0033
     24 C         142.0688  142.6586  165.5661 C.ar    1  UNL1        0.0119
     25 C         143.0990  143.4084  164.7745 C.ar    1  UNL1        0.0682
     26 CL        144.5379  142.9875  164.8273 Cl      1  UNL1       -0.0814
     27 C         142.6905  144.5789  163.9303 C.ar    1  UNL1        0.0679
     28 CL        143.7207  145.3287  163.1387 Cl      1  UNL1       -0.0814
     29 C         141.2517  144.9997  163.8775 C.ar    1  UNL1        0.0080
     30 C         138.4967  142.5616  161.5674 C.3     1  UNL1        0.0993
     31 C         139.9188  142.8411  161.1804 C.ar    1  UNL1       -0.0031
     32 C         141.0010  141.8698  161.5486 C.ar    1  UNL1       -0.0027
     33 C         142.4230  142.1493  161.1617 C.ar    1  UNL1        0.0028
     34 C         142.7628  143.4001  160.4065 C.ar    1  UNL1        0.0366
     35 C         141.6806  144.3713  160.0383 C.ar    1  UNL1        0.1334
     36 O         142.0205  145.6219  159.2832 O.3     1  UNL1       -0.5055
     37 C         140.2586  144.0918  160.4253 C.ar    1  UNL1        0.0337
     38 H         142.9088  145.7965  159.0415 H       1  UNL1        0.2922
@<TRIPOS>BOND
     1    16    17    1
     2    17    18    2
     3    17    19    2
     4    17    14    1
     5    14     8    1
     6     8     9   ar
     7     9    10   ar
     8    10    11   ar
     9    11     7    1
    10     7     6    1
    11     6     3    1
    12     3     4    1
    13     3     2    1
    14     2     1    1
    15     1    20    1
    16    20    21    1
    17    21    22    1
    18    22    23   ar
    19    23    24   ar
    20    24    25   ar
    21    25    26    1
    22    25    27   ar
    23    27    28    1
    24    27    29   ar
    25     1    30    1
    26    30    31    1
    27    31    32   ar
    28    32    33   ar
    29    33    34   ar
    30    34    35   ar
    31    35    36    1
    32    35    37   ar
    33    11    12   ar
    34    12    13   ar
    35    13     8   ar
    36    29    22   ar
    37    37    31   ar
    38    14    15    1
    39     4     5    1
    40    36    38    1
@<TRIPOS>MOLECULE
*****
 38 40 0 0 0
SMALL
GASTEIGER

@<TRIPOS>ATOM
      1 N         142.3816  140.5934  167.5936 N.3     1  UNL1       -0.2665
      2 C         141.9314  140.7243  169.0184 C.3     1  UNL1        0.1058
      3 C         140.6455  140.0905  169.4599 C.3     1  UNL1        0.1700
      4 O         140.6253  139.1942  170.6625 O.3     1  UNL1       -0.3793
      5 H         141.5191  139.1318  171.0343 H       1  UNL1        0.2106
      6 C         139.3799  140.3530  168.6988 C.3     1  UNL1        0.2358
      7 O         138.6507  139.2185  168.0421 O.3     1  UNL1       -0.4728
      8 C         138.7090  138.7991  163.5621 C.ar    1  UNL1        0.0646
      9 C         138.5970  137.5796  164.4282 C.ar    1  UNL1        0.0190
     10 C         138.5776  137.7194  165.9215 C.ar    1  UNL1        0.0382
     11 C         138.6701  139.0787  166.5488 C.ar    1  UNL1        0.1388
     12 C         138.7821  140.2983  165.6827 C.ar    1  UNL1        0.0382
     13 C         138.8016  140.1585  164.1894 C.ar    1  UNL1        0.0190
     14 N         138.7285  138.6593  162.0688 N.pl3   1  UNL1       -0.2187
     15 H         138.6446  137.7692  161.6566 H       1  UNL1        0.1734
     16 C         139.0228  141.0920  160.3381 C.3     1  UNL1        0.1996
     17 S         138.8756  139.8756  161.2035 S.O2    1  UNL1        0.0558
     18 O         140.3657  139.7045  161.2163 O.2     1  UNL1       -0.1544
     19 O         137.3855  140.0468  161.1907 O.2     1  UNL1       -0.1544
     20 C         142.4823  141.8113  166.7239 C.3     1  UNL1        0.0771
     21 C         141.2603  142.6341  166.4411 C.3     1  UNL1        0.0437
     22 C         140.9936  143.1270  165.0496 C.ar    1  UNL1       -0.0199
     23 C         139.9551  144.1834  164.8144 C.ar    1  UNL1       -0.0033
     24 C         139.6884  144.6763  163.4231 C.ar    1  UNL1        0.0119
     25 C         140.4603  144.1128  162.2670 C.ar    1  UNL1        0.0682
     26 CL        140.1936  144.6058  160.8756 Cl      1  UNL1       -0.0814
     27 C         141.4988  143.0564  162.5022 C.ar    1  UNL1        0.0679
     28 CL        142.2707  142.4929  161.3460 Cl      1  UNL1       -0.0814
     29 C         141.7655  142.5635  163.8935 C.ar    1  UNL1        0.0080
     30 C         142.7312  139.2444  167.0384 C.3     1  UNL1        0.0993
     31 C         143.0021  139.0842  165.5718 C.ar    1  UNL1       -0.0031
     32 C         144.1452  139.8182  164.9357 C.ar    1  UNL1       -0.0027
     33 C         144.4161  139.6580  163.4691 C.ar    1  UNL1        0.0028
     34 C         143.5439  138.7638  162.6386 C.ar    1  UNL1        0.0366
     35 C         142.4008  138.0298  163.2747 C.ar    1  UNL1        0.1334
     36 O         141.5287  137.1357  162.4442 O.3     1  UNL1       -0.5055
     37 C         142.1299  138.1900  164.7413 C.ar    1  UNL1        0.0337
     38 H         141.6979  137.0356  161.5281 H       1  UNL1        0.2922
@<TRIPOS>BOND
     1    16    17    1
     2    17    18    2
     3    17    19    2
     4    17    14    1
     5    14     8    1
     6     8     9   ar
     7     9    10   ar
     8    10    11   ar
     9    11     7    1
    10     7     6    1
    11     6     3    1
    12     3     4    1
    13     3     2    1
    14     2     1    1
    15     1    20    1
    16    20    21    1
    17    21    22    1
    18    22    23   ar
    19    23    24   ar
    20    24    25   ar
    21    25    26    1
    22    25    27   ar
    23    27    28    1
    24    27    29   ar
    25     1    30    1
    26    30    31    1
    27    31    32   ar
    28    32    33   ar
    29    33    34   ar
    30    34    35   ar
    31    35    36    1
    32    35    37   ar
    33    11    12   ar
    34    12    13   ar
    35    13     8   ar
    36    29    22   ar
    37    37    31   ar
    38    14    15    1
    39     4     5    1
    40    36    38    1
@<TRIPOS>MOLECULE
*****
 38 40 0 0 0
SMALL
GASTEIGER

@<TRIPOS>ATOM
      1 N         141.0153  143.5165  160.9338 N.3     1  UNL1       -0.2665
      2 C         139.6551  144.1111  161.1486 C.3     1  UNL1        0.1058
      3 C         139.2551  144.5962  162.5105 C.3     1  UNL1        0.1700
      4 O         139.7919  145.8964  163.0311 O.3     1  UNL1       -0.3793
      5 H         140.3781  146.2930  162.3678 H       1  UNL1        0.2106
      6 C         138.3183  143.7808  163.3518 C.3     1  UNL1        0.2358
      7 O         138.4781  142.2911  163.4232 O.3     1  UNL1       -0.4728
      8 C         139.5248  140.3252  167.3333 C.ar    1  UNL1        0.0646
      9 C         140.0761  141.6808  167.0042 C.ar    1  UNL1        0.0190
     10 C         139.7271  142.3361  165.7008 C.ar    1  UNL1        0.0382
     11 C         138.8270  141.6358  164.7266 C.ar    1  UNL1        0.1388
     12 C         138.2757  140.2802  165.0557 C.ar    1  UNL1        0.0382
     13 C         138.6246  139.6249  166.3591 C.ar    1  UNL1        0.0190
     14 N         139.8737  139.6699  168.6367 N.pl3   1  UNL1       -0.2187
     15 H         139.8110  138.6916  168.7282 H       1  UNL1        0.1734
     16 C         140.7626  141.3401  170.9648 C.3     1  UNL1        0.1996
     17 S         140.3182  140.5050  169.8008 S.O2    1  UNL1        0.0558
     18 O         138.8866  140.8107  170.1281 O.2     1  UNL1       -0.1544
     19 O         141.7497  140.1993  169.4735 O.2     1  UNL1       -0.1544
     20 C         141.1552  142.1973  160.2338 C.3     1  UNL1        0.0771
     21 C         140.1446  141.1136  160.4672 C.3     1  UNL1        0.0437
     22 C         140.3871  140.0769  161.5238 C.ar    1  UNL1       -0.0199
     23 C         139.6517  138.7704  161.4755 C.ar    1  UNL1       -0.0033
     24 C         139.8942  137.7338  162.5321 C.ar    1  UNL1        0.0119
     25 C         140.8722  138.0036  163.6371 C.ar    1  UNL1        0.0682
     26 CL        141.1147  136.9668  164.6937 Cl      1  UNL1       -0.0814
     27 C         141.6076  139.3100  163.6854 C.ar    1  UNL1        0.0679
     28 CL        142.5855  139.5798  164.7903 Cl      1  UNL1       -0.0814
     29 C         141.3651  140.3466  162.6288 C.ar    1  UNL1        0.0080
     30 C         142.2358  144.2412  161.4190 C.3     1  UNL1        0.0993
     31 C         143.0449  143.6750  162.5481 C.ar    1  UNL1       -0.0031
     32 C         142.5421  143.7800  163.9575 C.ar    1  UNL1       -0.0027
     33 C         143.3513  143.2138  165.0865 C.ar    1  UNL1        0.0028
     34 C         144.6632  142.5426  164.8061 C.ar    1  UNL1        0.0366
     35 C         145.1659  142.4377  163.3968 C.ar    1  UNL1        0.1334
     36 O         146.4777  141.7665  163.1165 O.3     1  UNL1       -0.5055
     37 C         144.3567  143.0039  162.2678 C.ar    1  UNL1        0.0337
     38 H         146.9831  141.4128  163.8218 H       1  UNL1        0.2922
@<TRIPOS>BOND
     1    16    17    1
     2    17    18    2
     3    17    19    2
     4    17    14    1
     5    14     8    1
     6     8     9   ar
     7     9    10   ar
     8    10    11   ar
     9    11     7    1
    10     7     6    1
    11     6     3    1
    12     3     4    1
    13     3     2    1
    14     2     1    1
    15     1    20    1
    16    20    21    1
    17    21    22    1
    18    22    23   ar
    19    23    24   ar
    20    24    25   ar
    21    25    26    1
    22    25    27   ar
    23    27    28    1
    24    27    29   ar
    25     1    30    1
    26    30    31    1
    27    31    32   ar
    28    32    33   ar
    29    33    34   ar
    30    34    35   ar
    31    35    36    1
    32    35    37   ar
    33    11    12   ar
    34    12    13   ar
    35    13     8   ar
    36    29    22   ar
    37    37    31   ar
    38    14    15    1
    39     4     5    1
    40    36    38    1
@<TRIPOS>MOLECULE
*****
 38 40 0 0 0
SMALL
GASTEIGER

@<TRIPOS>ATOM
      1 N         142.8847  140.1431  161.7065 N.3     1  UNL1       -0.2665
      2 C         144.3296  140.5460  161.7193 C.3     1  UNL1        0.1058
      3 C         145.0898  140.5710  163.0122 C.3     1  UNL1        0.1700
      4 O         145.1919  139.3286  163.8464 O.3     1  UNL1       -0.3793
      5 H         144.7146  138.6058  163.4097 H       1  UNL1        0.2106
      6 C         145.7479  141.8385  163.4709 C.3     1  UNL1        0.2358
      7 O         145.1851  142.5966  164.6364 O.3     1  UNL1       -0.4728
      8 C         141.1990  144.6526  164.2700 C.ar    1  UNL1        0.0646
      9 C         141.2947  143.3169  164.9457 C.ar    1  UNL1        0.0190
     10 C         142.6234  142.6315  165.0679 C.ar    1  UNL1        0.0382
     11 C         143.8564  143.2819  164.5142 C.ar    1  UNL1        0.1388
     12 C         143.7608  144.6176  163.8385 C.ar    1  UNL1        0.0382
     13 C         142.4321  145.3029  163.7163 C.ar    1  UNL1        0.0190
     14 N         139.8704  145.3379  164.1478 N.pl3   1  UNL1       -0.2187
     15 H         139.7729  146.2764  164.4290 H       1  UNL1        0.1734
     16 C         137.5102  143.8490  163.0467 C.3     1  UNL1        0.1996
     17 S         138.6903  144.5935  163.5973 S.O2    1  UNL1        0.0558
     18 O         139.3561  144.5310  162.2546 O.2     1  UNL1       -0.1544
     19 O         138.0245  144.6560  164.9399 O.2     1  UNL1       -0.1544
     20 C         142.5113  138.6905  161.6868 C.3     1  UNL1        0.0771
     21 C         142.4235  137.9212  162.9715 C.3     1  UNL1        0.0437
     22 C         141.2742  138.1525  163.9072 C.ar    1  UNL1       -0.0199
     23 C         139.9822  137.4180  163.7042 C.ar    1  UNL1       -0.0033
     24 C         138.8329  137.6494  164.6399 C.ar    1  UNL1        0.0119
     25 C         138.9756  138.6152  165.7786 C.ar    1  UNL1        0.0682
     26 CL        137.8263  138.8466  166.7144 Cl      1  UNL1       -0.0814
     27 C         140.2676  139.3497  165.9817 C.ar    1  UNL1        0.0679
     28 CL        140.4103  140.3155  167.1205 Cl      1  UNL1       -0.0814
     29 C         141.4169  139.1183  165.0460 C.ar    1  UNL1        0.0080
     30 C         141.8133  141.1930  161.7135 C.3     1  UNL1        0.0993
     31 C         140.3936  140.8177  161.4073 C.ar    1  UNL1       -0.0031
     32 C         139.3751  140.7754  162.5077 C.ar    1  UNL1       -0.0027
     33 C         137.9554  140.4002  162.2015 C.ar    1  UNL1        0.0028
     34 C         137.5543  140.0673  160.7949 C.ar    1  UNL1        0.0366
     35 C         138.5729  140.1096  159.6946 C.ar    1  UNL1        0.1334
     36 O         138.1718  139.7767  158.2881 O.3     1  UNL1       -0.5055
     37 C         139.9926  140.4848  160.0008 C.ar    1  UNL1        0.0337
     38 H         137.2850  139.5423  158.0969 H       1  UNL1        0.2922
@<TRIPOS>BOND
     1    16    17    1
     2    17    18    2
     3    17    19    2
     4    17    14    1
     5    14     8    1
     6     8     9   ar
     7     9    10   ar
     8    10    11   ar
     9    11     7    1
    10     7     6    1
    11     6     3    1
    12     3     4    1
    13     3     2    1
    14     2     1    1
    15     1    20    1
    16    20    21    1
    17    21    22    1
    18    22    23   ar
    19    23    24   ar
    20    24    25   ar
    21    25    26    1
    22    25    27   ar
    23    27    28    1
    24    27    29   ar
    25     1    30    1
    26    30    31    1
    27    31    32   ar
    28    32    33   ar
    29    33    34   ar
    30    34    35   ar
    31    35    36    1
    32    35    37   ar
    33    11    12   ar
    34    12    13   ar
    35    13     8   ar
    36    29    22   ar
    37    37    31   ar
    38    14    15    1
    39     4     5    1
    40    36    38    1
@<TRIPOS>MOLECULE
*****
 38 40 0 0 0
SMALL
GASTEIGER

@<TRIPOS>ATOM
      1 N         139.0936  139.8203  165.1004 N.3     1  UNL1       -0.2665
      2 C         138.9762  138.3302  164.9750 C.3     1  UNL1        0.1058
      3 C         139.4108  137.6472  163.7121 C.3     1  UNL1        0.1700
      4 O         138.4251  137.4213  162.6043 O.3     1  UNL1       -0.3793
      5 H         137.5597  137.7738  162.8645 H       1  UNL1        0.2106
      6 C         140.8310  137.1903  163.5571 C.3     1  UNL1        0.2358
      7 O         141.6260  137.6067  162.3553 O.3     1  UNL1       -0.4728
      8 C         143.8098  141.5413  162.3549 C.ar    1  UNL1        0.0646
      9 C         142.3121  141.5148  162.2771 C.ar    1  UNL1        0.0190
     10 C         141.5842  140.2033  162.2772 C.ar    1  UNL1        0.0382
     11 C         142.3539  138.9182  162.3551 C.ar    1  UNL1        0.1388
     12 C         143.8517  138.9447  162.4330 C.ar    1  UNL1        0.0382
     13 C         144.5796  140.2563  162.4329 C.ar    1  UNL1        0.0190
     14 N         144.5378  142.8528  162.3548 N.pl3   1  UNL1       -0.2187
     15 H         145.3220  142.9805  161.7734 H       1  UNL1        0.1734
     16 C         143.6041  145.0868  164.1261 C.3     1  UNL1        0.1996
     17 S         144.0710  143.9698  163.2405 S.O2    1  UNL1        0.0558
     18 O         143.5671  144.7123  162.0385 O.2     1  UNL1       -0.1544
     19 O         144.5748  143.2273  164.4424 O.2     1  UNL1       -0.1544
     20 C         138.0310  140.7076  164.5228 C.3     1  UNL1        0.0771
     21 C         138.1297  142.1961  164.6800 C.3     1  UNL1        0.0437
     22 C         138.7609  143.0241  163.6002 C.ar    1  UNL1       -0.0199
     23 C         139.4742  144.2962  163.9507 C.ar    1  UNL1       -0.0033
     24 C         140.1053  145.1241  162.8708 C.ar    1  UNL1        0.0119
     25 C         140.0230  144.6800  161.4404 C.ar    1  UNL1        0.0682
     26 CL        140.6542  145.5081  160.3605 Cl      1  UNL1       -0.0814
     27 C         139.3097  143.4080  161.0899 C.ar    1  UNL1        0.0679
     28 CL        139.2274  142.9638  159.6595 Cl      1  UNL1       -0.0814
     29 C         138.6786  142.5800  162.1698 C.ar    1  UNL1        0.0080
     30 C         140.2736  140.4231  165.8034 C.3     1  UNL1        0.0993
     31 C         140.1274  140.9439  167.2025 C.ar    1  UNL1       -0.0031
     32 C         140.5832  142.3333  167.5371 C.ar    1  UNL1       -0.0027
     33 C         140.4370  142.8540  168.9362 C.ar    1  UNL1        0.0028
     34 C         139.8350  141.9853  170.0007 C.ar    1  UNL1        0.0366
     35 C         139.3792  140.5960  169.6661 C.ar    1  UNL1        0.1334
     36 O         138.7773  139.7274  170.7306 O.3     1  UNL1       -0.5055
     37 C         139.5254  140.0753  168.2670 C.ar    1  UNL1        0.0337
     38 H         138.6859  140.0527  171.6045 H       1  UNL1        0.2922
@<TRIPOS>BOND
     1    16    17    1
     2    17    18    2
     3    17    19    2
     4    17    14    1
     5    14     8    1
     6     8     9   ar
     7     9    10   ar
     8    10    11   ar
     9    11     7    1
    10     7     6    1
    11     6     3    1
    12     3     4    1
    13     3     2    1
    14     2     1    1
    15     1    20    1
    16    20    21    1
    17    21    22    1
    18    22    23   ar
    19    23    24   ar
    20    24    25   ar
    21    25    26    1
    22    25    27   ar
    23    27    28    1
    24    27    29   ar
    25     1    30    1
    26    30    31    1
    27    31    32   ar
    28    32    33   ar
    29    33    34   ar
    30    34    35   ar
    31    35    36    1
    32    35    37   ar
    33    11    12   ar
    34    12    13   ar
    35    13     8   ar
    36    29    22   ar
    37    37    31   ar
    38    14    15    1
    39     4     5    1
    40    36    38    1
@<TRIPOS>MOLECULE
*****
 38 40 0 0 0
SMALL
GASTEIGER

@<TRIPOS>ATOM
      1 N         138.9973  138.1132  163.0127 N.3     1  UNL1       -0.2665
      2 C         137.9638  138.2224  161.9310 C.3     1  UNL1        0.1058
      3 C         137.7278  139.5376  161.2493 C.3     1  UNL1        0.1700
      4 O         136.8754  140.5814  161.9078 O.3     1  UNL1       -0.3793
      5 H         136.5577  140.2480  162.7615 H       1  UNL1        0.2106
      6 C         138.3442  139.8088  159.9089 C.3     1  UNL1        0.2358
      7 O         139.8354  139.8978  159.7734 O.3     1  UNL1       -0.4728
      8 C         142.0165  143.5420  161.2606 C.ar    1  UNL1        0.0646
      9 C         142.5581  142.7670  160.0962 C.ar    1  UNL1        0.0190
     10 C         141.8310  141.5523  159.6004 C.ar    1  UNL1        0.0382
     11 C         140.5624  141.1125  160.2691 C.ar    1  UNL1        0.1388
     12 C         140.0209  141.8875  161.4336 C.ar    1  UNL1        0.0382
     13 C         140.7479  143.1023  161.9293 C.ar    1  UNL1        0.0190
     14 N         142.7436  144.7568  161.7564 N.pl3   1  UNL1       -0.2187
     15 H         142.8150  145.5551  161.1847 H       1  UNL1        0.1734
     16 C         143.9799  144.7536  164.4898 C.3     1  UNL1        0.1996
     17 S         143.3617  144.7552  163.1231 S.O2    1  UNL1        0.0558
     18 O         144.5418  143.9993  162.5884 O.2     1  UNL1       -0.1544
     19 O         142.1816  145.5111  163.6577 O.2     1  UNL1       -0.1544
     20 C         138.6158  138.3604  164.4422 C.3     1  UNL1        0.0771
     21 C         138.4655  139.7651  164.9462 C.3     1  UNL1        0.0437
     22 C         139.5695  140.3996  165.7391 C.ar    1  UNL1       -0.0199
     23 C         140.2884  141.5993  165.1970 C.ar    1  UNL1       -0.0033
     24 C         141.3924  142.2337  165.9899 C.ar    1  UNL1        0.0119
     25 C         141.7775  141.6684  167.3249 C.ar    1  UNL1        0.0682
     26 CL        142.8815  142.3029  168.1178 Cl      1  UNL1       -0.0814
     27 C         141.0586  140.4687  167.8670 C.ar    1  UNL1        0.0679
     28 CL        141.4436  139.9035  169.2020 Cl      1  UNL1       -0.0814
     29 C         139.9546  139.8343  167.0741 C.ar    1  UNL1        0.0080
     30 C         140.4123  137.7569  162.6649 C.3     1  UNL1        0.0993
     31 C         141.5468  138.3225  163.4668 C.ar    1  UNL1       -0.0031
     32 C         141.9059  137.7148  164.7904 C.ar    1  UNL1       -0.0027
     33 C         143.0404  138.2804  165.5922 C.ar    1  UNL1        0.0028
     34 C         143.8159  139.4536  165.0704 C.ar    1  UNL1        0.0366
     35 C         143.4569  140.0612  163.7469 C.ar    1  UNL1        0.1334
     36 O         144.2324  141.2344  163.2252 O.3     1  UNL1       -0.5055
     37 C         142.3223  139.4957  162.9450 C.ar    1  UNL1        0.0337
     38 H         144.9411  141.5877  163.7260 H       1  UNL1        0.2922
@<TRIPOS>BOND
     1    16    17    1
     2    17    18    2
     3    17    19    2
     4    17    14    1
     5    14     8    1
     6     8     9   ar
     7     9    10   ar
     8    10    11   ar
     9    11     7    1
    10     7     6    1
    11     6     3    1
    12     3     4    1
    13     3     2    1
    14     2     1    1
    15     1    20    1
    16    20    21    1
    17    21    22    1
    18    22    23   ar
    19    23    24   ar
    20    24    25   ar
    21    25    26    1
    22    25    27   ar
    23    27    28    1
    24    27    29   ar
    25     1    30    1
    26    30    31    1
    27    31    32   ar
    28    32    33   ar
    29    33    34   ar
    30    34    35   ar
    31    35    36    1
    32    35    37   ar
    33    11    12   ar
    34    12    13   ar
    35    13     8   ar
    36    29    22   ar
    37    37    31   ar
    38    14    15    1
    39     4     5    1
    40    36    38    1
@<TRIPOS>MOLECULE
*****
 38 40 0 0 0
SMALL
GASTEIGER

@<TRIPOS>ATOM
      1 N         140.8764  138.4709  165.5092 N.3     1  UNL1       -0.2665
      2 C         139.9267  137.5862  164.7573 C.3     1  UNL1        0.1058
      3 C         140.0572  137.4383  163.2702 C.3     1  UNL1        0.1700
      4 O         141.2947  136.8270  162.6830 O.3     1  UNL1       -0.3793
      5 H         141.9053  136.5842  163.3966 H       1  UNL1        0.2106
      6 C         138.9501  137.9017  162.3705 C.3     1  UNL1        0.2358
      7 O         139.2730  138.5822  161.0733 O.3     1  UNL1       -0.4728
      8 C         140.2815  142.9675  161.0230 C.ar    1  UNL1        0.0646
      9 C         141.1548  142.0056  161.7726 C.ar    1  UNL1        0.0190
     10 C         140.8187  140.5439  161.7894 C.ar    1  UNL1        0.0382
     11 C         139.6091  140.0440  161.0565 C.ar    1  UNL1        0.1388
     12 C         138.7358  141.0058  160.3069 C.ar    1  UNL1        0.0382
     13 C         139.0719  142.4676  160.2902 C.ar    1  UNL1        0.0190
     14 N         140.6176  144.4292  161.0062 N.pl3   1  UNL1       -0.2187
     15 H         140.5569  144.9578  161.8346 H       1  UNL1        0.1734
     16 C         141.4749  145.7420  158.4486 C.3     1  UNL1        0.1996
     17 S         141.0463  145.0856  159.7274 S.O2    1  UNL1        0.0558
     18 O         139.7377  145.8159  159.6636 O.2     1  UNL1       -0.1544
     19 O         142.3549  144.3553  159.7913 O.2     1  UNL1       -0.1544
     20 C         142.3460  138.1710  165.5021 C.3     1  UNL1        0.0771
     21 C         143.3311  139.2382  165.8770 C.3     1  UNL1        0.0437
     22 C         143.7228  140.2830  164.8744 C.ar    1  UNL1       -0.0199
     23 C         144.2809  139.8737  163.5437 C.ar    1  UNL1       -0.0033
     24 C         144.6725  140.9185  162.5412 C.ar    1  UNL1        0.0119
     25 C         144.5060  142.3726  162.8695 C.ar    1  UNL1        0.0682
     26 CL        144.8976  143.4174  161.8669 Cl      1  UNL1       -0.0814
     27 C         143.9478  142.7820  164.2002 C.ar    1  UNL1        0.0679
     28 CL        143.7813  144.2361  164.5284 Cl      1  UNL1       -0.0814
     29 C         143.5562  141.7372  165.2027 C.ar    1  UNL1        0.0080
     30 C         140.3563  139.6557  166.2681 C.3     1  UNL1        0.0993
     31 C         139.6733  140.7735  165.5374 C.ar    1  UNL1       -0.0031
     32 C         140.2006  142.1736  165.6468 C.ar    1  UNL1       -0.0027
     33 C         139.5176  143.2915  164.9161 C.ar    1  UNL1        0.0028
     34 C         138.3074  143.0093  164.0760 C.ar    1  UNL1        0.0366
     35 C         137.7801  141.6093  163.9666 C.ar    1  UNL1        0.1334
     36 O         136.5699  141.3271  163.1266 O.3     1  UNL1       -0.5055
     37 C         138.4631  140.4914  164.6973 C.ar    1  UNL1        0.0337
     38 H         136.1433  142.0254  162.6701 H       1  UNL1        0.2922
@<TRIPOS>BOND
     1    16    17    1
     2    17    18    2
     3    17    19    2
     4    17    14    1
     5    14     8    1
     6     8     9   ar
     7     9    10   ar
     8    10    11   ar
     9    11     7    1
    10     7     6    1
    11     6     3    1
    12     3     4    1
    13     3     2    1
    14     2     1    1
    15     1    20    1
    16    20    21    1
    17    21    22    1
    18    22    23   ar
    19    23    24   ar
    20    24    25   ar
    21    25    26    1
    22    25    27   ar
    23    27    28    1
    24    27    29   ar
    25     1    30    1
    26    30    31    1
    27    31    32   ar
    28    32    33   ar
    29    33    34   ar
    30    34    35   ar
    31    35    36    1
    32    35    37   ar
    33    11    12   ar
    34    12    13   ar
    35    13     8   ar
    36    29    22   ar
    37    37    31   ar
    38    14    15    1
    39     4     5    1
    40    36    38    1
