@<TRIPOS>MOLECULE
*****
 29 31 0 0 0
SMALL
GASTEIGER

@<TRIPOS>ATOM
      1 N         139.8047  139.6366  167.4669 N.am    1  UNL1       -0.2658
      2 C         139.5439  140.2038  168.8308 C.2     1  UNL1        0.2493
      3 O         138.3032  139.9988  169.6485 O.2     1  UNL1       -0.2699
      4 C         140.7415  141.0122  169.2335 C.ar    1  UNL1        0.0516
      5 C         141.0499  141.8011  170.4714 C.ar    1  UNL1        0.0043
      6 C         142.3593  142.5223  170.5943 C.ar    1  UNL1        0.0001
      7 C         143.3604  142.4546  169.4793 C.ar    1  UNL1       -0.0003
      8 C         143.0520  141.6657  168.2414 C.ar    1  UNL1       -0.0021
      9 C         141.7426  140.9445  168.1185 C.ar    1  UNL1        0.0089
     10 C         141.1636  140.0944  167.0267 C.3     1  UNL1        0.1751
     11 C         141.8271  139.7606  165.7234 C.2     1  UNL1        0.2449
     12 O         142.4847  138.4255  165.5369 O.2     1  UNL1       -0.2729
     13 N         141.8328  140.7621  164.6066 N.am    1  UNL1       -0.3026
     14 H         141.4012  141.6384  164.7290 H       1  UNL1        0.1495
     15 C         142.4963  140.4283  163.3034 C.3     1  UNL1        0.0924
     16 C         141.7148  139.7540  162.2151 C.3     1  UNL1        0.0594
     17 C         142.0189  138.3329  161.8435 C.3     1  UNL1        0.1950
     18 F         141.6376  137.2172  162.7709 F       1  UNL1       -0.2343
     19 C         138.8706  138.7647  166.6812 C.3     1  UNL1        0.0984
     20 C         138.1993  140.4272  165.5476 C.3     1  UNL1        0.0061
     21 C         138.6436  139.0318  165.2228 C.3     1  UNL1        0.0372
     22 C         139.0878  137.6365  164.8980 C.3     1  UNL1        0.0061
     23 C         138.4165  139.2991  163.7643 C.ar    1  UNL1       -0.0211
     24 C         138.1531  140.6976  163.2902 C.ar    1  UNL1       -0.0034
     25 C         137.9260  140.9648  161.8318 C.ar    1  UNL1        0.0111
     26 C         137.9624  139.8335  160.8474 C.ar    1  UNL1        0.0577
     27 CL        137.7353  140.1008  159.3890 Cl      1  UNL1       -0.0822
     28 C         138.2258  138.4350  161.3215 C.ar    1  UNL1        0.0111
     29 C         138.4529  138.1678  162.7800 C.ar    1  UNL1       -0.0034
@<TRIPOS>BOND
     1    20    21    1
     2    21    22    1
     3    21    19    1
     4    19     1    1
     5     1     2   am
     6     2     3    2
     7     2     4    1
     8     4     5   ar
     9     5     6   ar
    10     6     7   ar
    11     7     8   ar
    12     8     9   ar
    13     9    10    1
    14    10    11    1
    15    11    12    2
    16    11    13   am
    17    13    15    1
    18    15    16    1
    19    16    17    1
    20    17    18    1
    21    21    23    1
    22    23    24   ar
    23    24    25   ar
    24    25    26   ar
    25    26    27    1
    26    26    28   ar
    27    28    29   ar
    28    10     1    1
    29    29    23   ar
    30     9     4   ar
    31    13    14    1
@<TRIPOS>MOLECULE
*****
 29 31 0 0 0
SMALL
GASTEIGER

@<TRIPOS>ATOM
      1 N         139.7545  139.6923  167.3274 N.am    1  UNL1       -0.2658
      2 C         139.5391  140.1552  168.7378 C.2     1  UNL1        0.2493
      3 O         138.3492  139.8431  169.5961 O.2     1  UNL1       -0.2699
      4 C         140.7224  140.9850  169.1392 C.ar    1  UNL1        0.0516
      5 C         141.0601  141.7016  170.4130 C.ar    1  UNL1        0.0043
      6 C         142.3446  142.4681  170.5244 C.ar    1  UNL1        0.0001
      7 C         143.2914  142.5181  169.3621 C.ar    1  UNL1       -0.0003
      8 C         142.9537  141.8016  168.0883 C.ar    1  UNL1       -0.0021
      9 C         141.6692  141.0350  167.9769 C.ar    1  UNL1        0.0089
     10 C         141.0710  140.2361  166.8571 C.3     1  UNL1        0.1751
     11 C         141.6821  140.0191  165.5045 C.2     1  UNL1        0.2449
     12 O         141.5490  141.0712  164.4438 O.2     1  UNL1       -0.2729
     13 N         142.4264  138.7498  165.2127 N.am    1  UNL1       -0.3026
     14 H         142.5138  138.0592  165.9089 H       1  UNL1        0.1495
     15 C         143.0374  138.5327  163.8601 C.3     1  UNL1        0.0924
     16 C         142.2102  137.9628  162.7462 C.3     1  UNL1        0.0594
     17 C         141.9778  138.7636  161.4993 C.3     1  UNL1        0.1950
     18 F         141.2099  140.0505  161.5666 F       1  UNL1       -0.2343
     19 C         138.8179  138.8361  166.5276 C.3     1  UNL1        0.0984
     20 C         139.0504  137.7296  164.7327 C.3     1  UNL1        0.0061
     21 C         138.6009  139.1202  165.0709 C.3     1  UNL1        0.0372
     22 C         138.1514  140.5107  165.4090 C.3     1  UNL1        0.0061
     23 C         138.3839  139.4042  163.6140 C.ar    1  UNL1       -0.0211
     24 C         138.4537  138.2885  162.6139 C.ar    1  UNL1       -0.0034
     25 C         138.2367  138.5725  161.1571 C.ar    1  UNL1        0.0111
     26 C         137.9500  139.9723  160.7004 C.ar    1  UNL1        0.0577
     27 CL        137.7330  140.2563  159.2436 Cl      1  UNL1       -0.0822
     28 C         137.8802  141.0880  161.7006 C.ar    1  UNL1        0.0111
     29 C         138.0972  140.8039  163.1574 C.ar    1  UNL1       -0.0034
@<TRIPOS>BOND
     1    20    21    1
     2    21    22    1
     3    21    19    1
     4    19     1    1
     5     1     2   am
     6     2     3    2
     7     2     4    1
     8     4     5   ar
     9     5     6   ar
    10     6     7   ar
    11     7     8   ar
    12     8     9   ar
    13     9    10    1
    14    10    11    1
    15    11    12    2
    16    11    13   am
    17    13    15    1
    18    15    16    1
    19    16    17    1
    20    17    18    1
    21    21    23    1
    22    23    24   ar
    23    24    25   ar
    24    25    26   ar
    25    26    27    1
    26    26    28   ar
    27    28    29   ar
    28    10     1    1
    29    29    23   ar
    30     9     4   ar
    31    13    14    1
@<TRIPOS>MOLECULE
*****
 29 31 0 0 0
SMALL
GASTEIGER

@<TRIPOS>ATOM
      1 N         143.8923  140.0867  163.1323 N.am    1  UNL1       -0.2658
      2 C         144.7475  141.1185  162.4584 C.2     1  UNL1        0.2493
      3 O         146.0200  141.6993  163.0000 O.2     1  UNL1       -0.2699
      4 C         144.1066  141.4677  161.1479 C.ar    1  UNL1        0.0516
      5 C         144.5008  142.4232  160.0609 C.ar    1  UNL1        0.0043
      6 C         143.6437  142.5626  158.8379 C.ar    1  UNL1        0.0001
      7 C         142.3925  141.7466  158.7018 C.ar    1  UNL1       -0.0003
      8 C         141.9984  140.7911  159.7888 C.ar    1  UNL1       -0.0021
      9 C         142.8554  140.6516  161.0118 C.ar    1  UNL1        0.0089
     10 C         142.7230  139.7982  162.2382 C.3     1  UNL1        0.1751
     11 C         141.6156  138.8267  162.5209 C.2     1  UNL1        0.2449
     12 O         141.6415  137.4596  161.9043 O.2     1  UNL1       -0.2729
     13 N         140.4822  139.2223  163.4205 N.am    1  UNL1       -0.3026
     14 H         140.4652  140.1196  163.8253 H       1  UNL1        0.1495
     15 C         139.3748  138.2508  163.7032 C.3     1  UNL1        0.0924
     16 C         139.2212  137.6678  165.0766 C.3     1  UNL1        0.0594
     17 C         138.2134  138.2431  166.0271 C.3     1  UNL1        0.1950
     18 F         137.6961  139.6357  165.8193 F       1  UNL1       -0.2343
     19 C         144.1596  139.4545  164.4661 C.3     1  UNL1        0.0984
     20 C         143.3812  141.1797  165.4240 C.3     1  UNL1        0.0061
     21 C         143.2249  139.6999  165.6132 C.3     1  UNL1        0.0372
     22 C         143.0686  138.2202  165.8024 C.3     1  UNL1        0.0061
     23 C         142.2901  139.9454  166.7604 C.ar    1  UNL1       -0.0211
     24 C         141.0277  140.7265  166.5453 C.ar    1  UNL1       -0.0034
     25 C         140.0929  140.9720  167.6924 C.ar    1  UNL1        0.0111
     26 C         140.4205  140.4363  169.0547 C.ar    1  UNL1        0.0577
     27 CL        139.4857  140.6818  170.2018 Cl      1  UNL1       -0.0822
     28 C         141.6829  139.6552  169.2698 C.ar    1  UNL1        0.0111
     29 C         142.6177  139.4098  168.1226 C.ar    1  UNL1       -0.0034
@<TRIPOS>BOND
     1    20    21    1
     2    21    22    1
     3    21    19    1
     4    19     1    1
     5     1     2   am
     6     2     3    2
     7     2     4    1
     8     4     5   ar
     9     5     6   ar
    10     6     7   ar
    11     7     8   ar
    12     8     9   ar
    13     9    10    1
    14    10    11    1
    15    11    12    2
    16    11    13   am
    17    13    15    1
    18    15    16    1
    19    16    17    1
    20    17    18    1
    21    21    23    1
    22    23    24   ar
    23    24    25   ar
    24    25    26   ar
    25    26    27    1
    26    26    28   ar
    27    28    29   ar
    28    10     1    1
    29    29    23   ar
    30     9     4   ar
    31    13    14    1
@<TRIPOS>MOLECULE
*****
 29 31 0 0 0
SMALL
GASTEIGER

@<TRIPOS>ATOM
      1 N         139.6979  139.0324  162.9089 N.am    1  UNL1       -0.2658
      2 C         140.6373  138.1676  162.1217 C.2     1  UNL1        0.2493
      3 O         141.1775  136.8354  162.5499 O.2     1  UNL1       -0.2699
      4 C         140.9416  138.8689  160.8311 C.ar    1  UNL1        0.0516
      5 C         141.8057  138.4931  159.6641 C.ar    1  UNL1        0.0043
      6 C         141.9185  139.4155  158.4867 C.ar    1  UNL1        0.0001
      7 C         141.1672  140.7137  158.4763 C.ar    1  UNL1       -0.0003
      8 C         140.3031  141.0895  159.6433 C.ar    1  UNL1       -0.0021
      9 C         140.1903  140.1671  160.8207 C.ar    1  UNL1        0.0089
     10 C         139.4216  140.2682  162.1049 C.3     1  UNL1        0.1751
     11 C         138.5328  141.4054  162.5132 C.2     1  UNL1        0.2449
     12 O         137.0565  141.1869  162.6634 O.2     1  UNL1       -0.2729
     13 N         139.1204  142.7612  162.7714 N.am    1  UNL1       -0.3026
     14 H         140.0894  142.9047  162.6728 H       1  UNL1        0.1495
     15 C         138.2315  143.8984  163.1798 C.3     1  UNL1        0.0924
     16 C         137.8027  144.0387  164.6103 C.3     1  UNL1        0.0594
     17 C         138.5608  144.9441  165.5351 C.3     1  UNL1        0.1950
     18 F         137.8197  145.8224  166.4993 F       1  UNL1       -0.2343
     19 C         139.1338  138.7168  164.2626 C.3     1  UNL1        0.0984
     20 C         137.9922  139.6575  165.7830 C.3     1  UNL1        0.0061
     21 C         139.4494  139.6022  165.4315 C.3     1  UNL1        0.0372
     22 C         140.9065  139.5468  165.0801 C.3     1  UNL1        0.0061
     23 C         139.7649  140.4875  166.6006 C.ar    1  UNL1       -0.0211
     24 C         139.4938  140.0111  167.9969 C.ar    1  UNL1       -0.0034
     25 C         139.8092  140.8964  169.1659 C.ar    1  UNL1        0.0111
     26 C         140.3958  142.2582  168.9387 C.ar    1  UNL1        0.0577
     27 CL        140.7113  143.1435  170.1078 Cl      1  UNL1       -0.0822
     28 C         140.6669  142.7346  167.5425 C.ar    1  UNL1        0.0111
     29 C         140.3514  141.8492  166.3734 C.ar    1  UNL1       -0.0034
@<TRIPOS>BOND
     1    20    21    1
     2    21    22    1
     3    21    19    1
     4    19     1    1
     5     1     2   am
     6     2     3    2
     7     2     4    1
     8     4     5   ar
     9     5     6   ar
    10     6     7   ar
    11     7     8   ar
    12     8     9   ar
    13     9    10    1
    14    10    11    1
    15    11    12    2
    16    11    13   am
    17    13    15    1
    18    15    16    1
    19    16    17    1
    20    17    18    1
    21    21    23    1
    22    23    24   ar
    23    24    25   ar
    24    25    26   ar
    25    26    27    1
    26    26    28   ar
    27    28    29   ar
    28    10     1    1
    29    29    23   ar
    30     9     4   ar
    31    13    14    1
@<TRIPOS>MOLECULE
*****
 29 31 0 0 0
SMALL
GASTEIGER

@<TRIPOS>ATOM
      1 N         139.6577  139.2290  166.4011 N.am    1  UNL1       -0.2658
      2 C         138.9584  139.5145  167.6971 C.2     1  UNL1        0.2493
      3 O         137.7146  138.8399  168.1950 O.2     1  UNL1       -0.2699
      4 C         139.7212  140.5930  168.4077 C.ar    1  UNL1        0.0516
      5 C         139.5009  141.2772  169.7242 C.ar    1  UNL1        0.0043
      6 C         140.4514  142.3426  170.1840 C.ar    1  UNL1        0.0001
      7 C         141.6222  142.7237  169.3273 C.ar    1  UNL1       -0.0003
      8 C         141.8425  142.0395  168.0108 C.ar    1  UNL1       -0.0021
      9 C         140.8920  140.9741  167.5510 C.ar    1  UNL1        0.0089
     10 C         140.8528  140.1311  166.3109 C.3     1  UNL1        0.1751
     11 C         141.8360  140.1815  165.1792 C.2     1  UNL1        0.2449
     12 O         141.7238  141.2526  164.1352 O.2     1  UNL1       -0.2729
     13 N         142.9315  139.1605  165.0914 N.am    1  UNL1       -0.3026
     14 H         143.0052  138.4574  165.7766 H       1  UNL1        0.1495
     15 C         143.9147  139.2108  163.9597 C.3     1  UNL1        0.0924
     16 C         145.2215  139.9266  164.1329 C.3     1  UNL1        0.0594
     17 C         145.4127  141.2921  163.5422 C.3     1  UNL1        0.1950
     18 F         145.6396  142.4725  164.4397 F       1  UNL1       -0.2343
     19 C         139.2361  138.2189  165.3756 C.3     1  UNL1        0.0984
     20 C         140.0072  137.5386  163.5202 C.3     1  UNL1        0.0061
     21 C         139.0687  138.6298  163.9427 C.3     1  UNL1        0.0372
     22 C         138.1302  139.7209  164.3653 C.3     1  UNL1        0.0061
     23 C         138.9013  139.0406  162.5098 C.ar    1  UNL1       -0.0211
     24 C         138.0788  140.2472  162.1667 C.ar    1  UNL1       -0.0034
     25 C         137.9114  140.6581  160.7339 C.ar    1  UNL1        0.0111
     26 C         138.5665  139.8624  159.6440 C.ar    1  UNL1        0.0577
     27 CL        138.3991  140.2733  158.2112 Cl      1  UNL1       -0.0822
     28 C         139.3890  138.6558  159.9870 C.ar    1  UNL1        0.0111
     29 C         139.5564  138.2449  161.4200 C.ar    1  UNL1       -0.0034
@<TRIPOS>BOND
     1    20    21    1
     2    21    22    1
     3    21    19    1
     4    19     1    1
     5     1     2   am
     6     2     3    2
     7     2     4    1
     8     4     5   ar
     9     5     6   ar
    10     6     7   ar
    11     7     8   ar
    12     8     9   ar
    13     9    10    1
    14    10    11    1
    15    11    12    2
    16    11    13   am
    17    13    15    1
    18    15    16    1
    19    16    17    1
    20    17    18    1
    21    21    23    1
    22    23    24   ar
    23    24    25   ar
    24    25    26   ar
    25    26    27    1
    26    26    28   ar
    27    28    29   ar
    28    10     1    1
    29    29    23   ar
    30     9     4   ar
    31    13    14    1
@<TRIPOS>MOLECULE
*****
 29 31 0 0 0
SMALL
GASTEIGER

@<TRIPOS>ATOM
      1 N         142.9355  139.7635  167.3188 N.am    1  UNL1       -0.2658
      2 C         142.5660  139.4976  168.7480 C.2     1  UNL1        0.2493
      3 O         142.9376  138.2811  169.5431 O.2     1  UNL1       -0.2699
      4 C         141.7596  140.6617  169.2427 C.ar    1  UNL1        0.0516
      5 C         141.1261  140.9518  170.5710 C.ar    1  UNL1        0.0043
      6 C         140.3637  142.2272  170.7757 C.ar    1  UNL1        0.0001
      7 C         140.2348  143.2126  169.6521 C.ar    1  UNL1       -0.0003
      8 C         140.8684  142.9225  168.3238 C.ar    1  UNL1       -0.0021
      9 C         141.6308  141.6471  168.1191 C.ar    1  UNL1        0.0089
     10 C         142.3575  141.0920  166.9301 C.3     1  UNL1        0.1751
     11 C         142.4840  141.7499  165.5880 C.2     1  UNL1        0.2449
     12 O         143.7058  142.5557  165.2599 O.2     1  UNL1       -0.2729
     13 N         141.3886  141.6019  164.5739 N.am    1  UNL1       -0.3026
     14 H         140.5866  141.0729  164.7892 H       1  UNL1        0.1495
     15 C         141.5151  142.2598  163.2318 C.3     1  UNL1        0.0924
     16 C         141.0437  141.5462  161.9995 C.3     1  UNL1        0.0594
     17 C         139.6055  141.1395  161.8723 C.3     1  UNL1        0.1950
     18 F         139.0687  140.0119  162.7033 F       1  UNL1       -0.2343
     19 C         143.7415  138.8597  166.4337 C.3     1  UNL1        0.0984
     20 C         142.0695  138.1271  165.3531 C.3     1  UNL1        0.0061
     21 C         143.3929  138.7270  164.9808 C.3     1  UNL1        0.0372
     22 C         144.7163  139.3269  164.6085 C.3     1  UNL1        0.0061
     23 C         143.0443  138.5942  163.5279 C.ar    1  UNL1       -0.0211
     24 C         141.7463  137.9609  163.1228 C.ar    1  UNL1       -0.0034
     25 C         141.3977  137.8281  161.6700 C.ar    1  UNL1        0.0111
     26 C         142.3471  138.3288  160.6221 C.ar    1  UNL1        0.0577
     27 CL        141.9985  138.1960  159.1692 Cl      1  UNL1       -0.0822
     28 C         143.6451  138.9621  161.0271 C.ar    1  UNL1        0.0111
     29 C         143.9937  139.0949  162.4800 C.ar    1  UNL1       -0.0034
@<TRIPOS>BOND
     1    20    21    1
     2    21    22    1
     3    21    19    1
     4    19     1    1
     5     1     2   am
     6     2     3    2
     7     2     4    1
     8     4     5   ar
     9     5     6   ar
    10     6     7   ar
    11     7     8   ar
    12     8     9   ar
    13     9    10    1
    14    10    11    1
    15    11    12    2
    16    11    13   am
    17    13    15    1
    18    15    16    1
    19    16    17    1
    20    17    18    1
    21    21    23    1
    22    23    24   ar
    23    24    25   ar
    24    25    26   ar
    25    26    27    1
    26    26    28   ar
    27    28    29   ar
    28    10     1    1
    29    29    23   ar
    30     9     4   ar
    31    13    14    1
@<TRIPOS>MOLECULE
*****
 29 31 0 0 0
SMALL
GASTEIGER

@<TRIPOS>ATOM
      1 N         139.4377  142.4743  163.3993 N.am    1  UNL1       -0.2658
      2 C         139.1440  143.8109  162.7850 C.2     1  UNL1        0.2493
      3 O         138.1253  144.7993  163.2699 O.2     1  UNL1       -0.2699
      4 C         140.0479  143.9855  161.6007 C.ar    1  UNL1        0.0516
      5 C         140.2049  145.1045  160.6143 C.ar    1  UNL1        0.0043
      6 C         141.2142  144.9949  159.5102 C.ar    1  UNL1        0.0001
      7 C         142.0666  143.7662  159.3925 C.ar    1  UNL1       -0.0003
      8 C         141.9096  142.6472  160.3789 C.ar    1  UNL1       -0.0021
      9 C         140.9002  142.7568  161.4830 C.ar    1  UNL1        0.0089
     10 C         140.5231  141.8229  162.5946 C.3     1  UNL1        0.1751
     11 C         141.1257  140.4742  162.8556 C.2     1  UNL1        0.2449
     12 O         140.5184  139.2493  162.2388 O.2     1  UNL1       -0.2729
     13 N         142.3357  140.3506  163.7335 N.am    1  UNL1       -0.3026
     14 H         142.7344  141.1545  164.1383 H       1  UNL1        0.1495
     15 C         142.9383  139.0019  163.9945 C.3     1  UNL1        0.0924
     16 C         142.6666  138.2973  165.2905 C.3     1  UNL1        0.0594
     17 C         143.7313  138.2297  166.3449 C.3     1  UNL1        0.1950
     18 F         143.3508  138.2269  167.7959 F       1  UNL1       -0.2343
     19 C         138.7643  141.8915  164.6063 C.3     1  UNL1        0.0984
     20 C         140.0612  142.9613  165.8999 C.3     1  UNL1        0.0061
     21 C         139.5720  141.5455  165.8219 C.3     1  UNL1        0.0372
     22 C         139.0829  140.1296  165.7439 C.3     1  UNL1        0.0061
     23 C         140.3798  141.1995  167.0376 C.ar    1  UNL1       -0.0211
     24 C         141.7721  141.7364  167.1907 C.ar    1  UNL1       -0.0034
     25 C         142.5798  141.3904  168.4063 C.ar    1  UNL1        0.0111
     26 C         141.9954  140.5075  169.4689 C.ar    1  UNL1        0.0577
     27 CL        142.8032  140.1615  170.6845 Cl      1  UNL1       -0.0822
     28 C         140.6032  139.9706  169.3158 C.ar    1  UNL1        0.0111
     29 C         139.7954  140.3166  168.1001 C.ar    1  UNL1       -0.0034
@<TRIPOS>BOND
     1    20    21    1
     2    21    22    1
     3    21    19    1
     4    19     1    1
     5     1     2   am
     6     2     3    2
     7     2     4    1
     8     4     5   ar
     9     5     6   ar
    10     6     7   ar
    11     7     8   ar
    12     8     9   ar
    13     9    10    1
    14    10    11    1
    15    11    12    2
    16    11    13   am
    17    13    15    1
    18    15    16    1
    19    16    17    1
    20    17    18    1
    21    21    23    1
    22    23    24   ar
    23    24    25   ar
    24    25    26   ar
    25    26    27    1
    26    26    28   ar
    27    28    29   ar
    28    10     1    1
    29    29    23   ar
    30     9     4   ar
    31    13    14    1
@<TRIPOS>MOLECULE
*****
 29 31 0 0 0
SMALL
GASTEIGER

@<TRIPOS>ATOM
      1 N         142.2606  143.6257  160.6033 N.am    1  UNL1       -0.2658
      2 C         142.9289  143.4790  159.2685 C.2     1  UNL1        0.2493
      3 O         144.1723  142.6885  158.9872 O.2     1  UNL1       -0.2699
      4 C         142.1357  144.2616  158.2644 C.ar    1  UNL1        0.0516
      5 C         142.3186  144.4816  156.7919 C.ar    1  UNL1        0.0043
      6 C         141.3430  145.3320  156.0338 C.ar    1  UNL1        0.0001
      7 C         140.1844  145.9624  156.7480 C.ar    1  UNL1       -0.0003
      8 C         140.0014  145.7424  158.2204 C.ar    1  UNL1       -0.0021
      9 C         140.9770  144.8920  158.9786 C.ar    1  UNL1        0.0089
     10 C         141.0543  144.4990  160.4242 C.3     1  UNL1        0.1751
     11 C         140.0938  144.9076  161.5014 C.2     1  UNL1        0.2449
     12 O         140.3363  146.1628  162.2859 O.2     1  UNL1       -0.2729
     13 N         138.8906  144.0609  161.7941 N.am    1  UNL1       -0.3026
     14 H         138.7313  143.2371  161.2792 H       1  UNL1        0.1495
     15 C         137.9300  144.4696  162.8714 C.3     1  UNL1        0.0924
     16 C         138.0675  143.9025  164.2532 C.3     1  UNL1        0.0594
     17 C         138.8196  144.6634  165.3046 C.3     1  UNL1        0.1950
     18 F         138.0836  145.5745  166.2419 F       1  UNL1       -0.2343
     19 C         142.7183  143.0077  161.8912 C.3     1  UNL1        0.0984
     20 C         141.5178  141.2789  161.6269 C.3     1  UNL1        0.0061
     21 C         141.7464  142.2504  162.7467 C.3     1  UNL1        0.0372
     22 C         141.9750  143.2219  163.8665 C.3     1  UNL1        0.0061
     23 C         140.7745  141.4930  163.6022 C.ar    1  UNL1       -0.0211
     24 C         139.6775  140.6939  162.9634 C.ar    1  UNL1       -0.0034
     25 C         138.7056  139.9365  163.8188 C.ar    1  UNL1        0.0111
     26 C         138.8306  139.9782  165.3130 C.ar    1  UNL1        0.0577
     27 CL        137.8588  139.2208  166.1684 Cl      1  UNL1       -0.0822
     28 C         139.9276  140.7773  165.9518 C.ar    1  UNL1        0.0111
     29 C         140.8996  141.5348  165.0963 C.ar    1  UNL1       -0.0034
@<TRIPOS>BOND
     1    20    21    1
     2    21    22    1
     3    21    19    1
     4    19     1    1
     5     1     2   am
     6     2     3    2
     7     2     4    1
     8     4     5   ar
     9     5     6   ar
    10     6     7   ar
    11     7     8   ar
    12     8     9   ar
    13     9    10    1
    14    10    11    1
    15    11    12    2
    16    11    13   am
    17    13    15    1
    18    15    16    1
    19    16    17    1
    20    17    18    1
    21    21    23    1
    22    23    24   ar
    23    24    25   ar
    24    25    26   ar
    25    26    27    1
    26    26    28   ar
    27    28    29   ar
    28    10     1    1
    29    29    23   ar
    30     9     4   ar
    31    13    14    1
@<TRIPOS>MOLECULE
*****
 29 31 0 0 0
SMALL
GASTEIGER

@<TRIPOS>ATOM
      1 N         141.5149  138.9668  165.9462 N.am    1  UNL1       -0.2658
      2 C         142.5953  139.1735  166.9660 C.2     1  UNL1        0.2493
      3 O         143.7928  138.2941  167.1725 O.2     1  UNL1       -0.2699
      4 C         142.2681  140.4141  167.7431 C.ar    1  UNL1        0.0516
      5 C         142.9724  141.1062  168.8722 C.ar    1  UNL1        0.0043
      6 C         142.3940  142.3583  169.4618 C.ar    1  UNL1        0.0001
      7 C         141.1113  142.9183  168.9223 C.ar    1  UNL1       -0.0003
      8 C         140.4070  142.2262  167.7932 C.ar    1  UNL1       -0.0021
      9 C         140.9854  140.9741  167.2036 C.ar    1  UNL1        0.0089
     10 C         140.5199  140.0796  166.0931 C.3     1  UNL1        0.1751
     11 C         139.2775  140.2654  165.2733 C.2     1  UNL1        0.2449
     12 O         138.0400  139.4829  165.5991 O.2     1  UNL1       -0.2729
     13 N         139.2726  141.2338  164.1277 N.am    1  UNL1       -0.3026
     14 H         140.0848  141.7474  163.9139 H       1  UNL1        0.1495
     15 C         138.0302  141.4196  163.3080 C.3     1  UNL1        0.0924
     16 C         137.8596  142.6548  162.4743 C.3     1  UNL1        0.0594
     17 C         137.7224  143.9936  163.1368 C.3     1  UNL1        0.1950
     18 F         137.5153  144.0788  164.6201 F       1  UNL1       -0.2343
     19 C         141.4422  137.8443  164.9539 C.3     1  UNL1        0.0984
     20 C         140.1830  137.4997  163.2819 C.3     1  UNL1        0.0061
     21 C         141.5264  138.1353  163.4848 C.3     1  UNL1        0.0372
     22 C         142.8698  138.7710  163.6878 C.3     1  UNL1        0.0061
     23 C         141.6106  138.4264  162.0157 C.ar    1  UNL1       -0.0211
     24 C         142.7204  137.8368  161.1967 C.ar    1  UNL1       -0.0034
     25 C         142.8047  138.1278  159.7277 C.ar    1  UNL1        0.0111
     26 C         141.7790  139.0084  159.0775 C.ar    1  UNL1        0.0577
     27 CL        141.8632  139.2994  157.6084 Cl      1  UNL1       -0.0822
     28 C         140.6692  139.5980  159.8965 C.ar    1  UNL1        0.0111
     29 C         140.5850  139.3069  161.3656 C.ar    1  UNL1       -0.0034
@<TRIPOS>BOND
     1    20    21    1
     2    21    22    1
     3    21    19    1
     4    19     1    1
     5     1     2   am
     6     2     3    2
     7     2     4    1
     8     4     5   ar
     9     5     6   ar
    10     6     7   ar
    11     7     8   ar
    12     8     9   ar
    13     9    10    1
    14    10    11    1
    15    11    12    2
    16    11    13   am
    17    13    15    1
    18    15    16    1
    19    16    17    1
    20    17    18    1
    21    21    23    1
    22    23    24   ar
    23    24    25   ar
    24    25    26   ar
    25    26    27    1
    26    26    28   ar
    27    28    29   ar
    28    10     1    1
    29    29    23   ar
    30     9     4   ar
    31    13    14    1
