@<TRIPOS>MOLECULE
*****
 34 37 0 0 0
SMALL
GASTEIGER

@<TRIPOS>ATOM
      1 C         141.2612  140.5701  168.3960 C.ar    1  UNL1        0.0685
      2 C         140.9543  140.4741  169.8611 C.ar    1  UNL1        0.0885
      3 C         139.6041  140.0048  170.3154 C.ar    1  UNL1        0.1263
      4 N         138.5606  139.6314  169.3045 N.ar    1  UNL1       -0.1633
      5 N         138.8675  139.7274  167.8394 N.ar    1  UNL1       -0.2270
      6 C         138.0457  139.4300  166.6203 C.ar    1  UNL1        0.1005
      7 C         138.8882  139.7156  165.4125 C.ar    1  UNL1        0.0229
      8 C         140.2306  140.1895  165.8852 C.ar    1  UNL1        0.0220
      9 C         140.2178  140.1967  167.3851 C.ar    1  UNL1        0.0961
     10 C         138.4630  139.5555  163.9830 C.ar    1  UNL1        0.0290
     11 C         138.6421  138.2370  163.2904 C.ar    1  UNL1        0.0023
     12 C         138.2168  138.0770  161.8609 C.ar    1  UNL1        0.0001
     13 C         137.6124  139.2353  161.1239 C.ar    1  UNL1        0.0023
     14 C         137.4333  140.5537  161.8165 C.ar    1  UNL1        0.0296
     15 C         137.8586  140.7137  163.2460 C.ar    1  UNL1        0.1401
     16 F         137.6795  142.0322  163.9386 F       1  UNL1       -0.2042
     17 C         141.9979  140.8475  170.8720 C.2     1  UNL1        0.2456
     18 N         143.1966  139.9684  171.0721 N.am    1  UNL1       -0.3252
     19 O         141.8426  142.0999  171.6826 O.2     1  UNL1       -0.2703
     20 H         143.2985  139.1463  170.5400 H       1  UNL1        0.1453
     21 H         143.8815  140.2134  171.7355 H       1  UNL1        0.1453
     22 N         142.6115  141.0395  167.9417 N.pl3   1  UNL1       -0.3327
     23 H         143.0881  141.7345  168.4508 H       1  UNL1        0.1468
     24 C         143.3170  142.4169  166.3192 C.3     1  UNL1        0.0029
     25 C         143.7603  141.2177  165.5347 C.3     1  UNL1        0.0282
     26 C         144.1921  142.2361  164.5217 C.3     1  UNL1        0.0029
     27 C         143.2359  140.4499  166.7117 C.3     1  UNL1        0.0702
     28 C         143.4453  138.9892  166.4429 C.3     1  UNL1        0.0208
     29 C         144.0991  138.8541  165.0998 C.3     1  UNL1        0.0160
     30 C         144.2939  140.2314  164.5385 C.3     1  UNL1        0.0404
     31 C         144.6141  141.4561  163.7337 C.3     1  UNL1        0.0156
     32 N         144.8944  139.5011  163.3739 N.3     1  UNL1       -0.3231
     33 H         144.8645  138.4969  163.5503 H       1  UNL1        0.1188
     34 H         145.8630  139.7960  163.2506 H       1  UNL1        0.1188
@<TRIPOS>BOND
     1    24    25    1
     2    25    26    1
     3    25    27    1
     4    27    22    1
     5    22     1    1
     6     1     2   ar
     7     2    17    1
     8    17    18   am
     9    17    19    2
    10     2     3   ar
    11     3     4   ar
    12     4     5   ar
    13     5     6   ar
    14     6     7   ar
    15     7    10    1
    16    10    11   ar
    17    11    12   ar
    18    12    13   ar
    19    13    14   ar
    20    14    15   ar
    21    15    16    1
    22     7     8   ar
    23     8     9   ar
    24    27    28    1
    25    28    29    1
    26    29    30    1
    27    30    31    1
    28    30    32    1
    29    30    25    1
    30     9     1   ar
    31     9     5   ar
    32    15    10   ar
    33    22    23    1
    34    18    20    1
    35    18    21    1
    36    32    33    1
    37    32    34    1
@<TRIPOS>MOLECULE
*****
 34 37 0 0 0
SMALL
GASTEIGER

@<TRIPOS>ATOM
      1 C         141.6718  140.8026  167.7849 C.ar    1  UNL1        0.0685
      2 C         141.5029  140.5976  169.2612 C.ar    1  UNL1        0.0885
      3 C         140.2281  140.0161  169.7966 C.ar    1  UNL1        0.1263
      4 N         139.1221  139.6396  168.8558 N.ar    1  UNL1       -0.1633
      5 N         139.2910  139.8446  167.3795 N.ar    1  UNL1       -0.2270
      6 C         138.3825  139.5707  166.2178 C.ar    1  UNL1        0.1005
      7 C         139.0959  139.9830  164.9643 C.ar    1  UNL1        0.0229
      8 C         140.4452  140.5116  165.3514 C.ar    1  UNL1        0.0220
      9 C         140.5658  140.4261  166.8441 C.ar    1  UNL1        0.0961
     10 C         138.5549  139.8840  163.5688 C.ar    1  UNL1        0.0290
     11 C         138.1980  141.1293  162.8127 C.ar    1  UNL1        0.0023
     12 C         137.6570  141.0303  161.4171 C.ar    1  UNL1        0.0001
     13 C         137.4728  139.6859  160.7777 C.ar    1  UNL1        0.0023
     14 C         137.8297  138.4406  161.5338 C.ar    1  UNL1        0.0296
     15 C         138.3707  138.5397  162.9294 C.ar    1  UNL1        0.1401
     16 F         138.7276  137.2943  163.6855 F       1  UNL1       -0.2042
     17 C         142.6089  140.9741  170.2020 C.2     1  UNL1        0.2456
     18 N         143.2614  139.9236  171.0510 N.am    1  UNL1       -0.3252
     19 O         143.0623  142.4009  170.2938 O.2     1  UNL1       -0.2703
     20 H         142.9638  138.9871  170.9907 H       1  UNL1        0.1453
     21 H         143.9873  140.1707  171.6684 H       1  UNL1        0.1453
     22 N         142.9466  141.3841  167.2494 N.pl3   1  UNL1       -0.3327
     23 H         143.3962  142.1140  167.7335 H       1  UNL1        0.1468
     24 C         143.7375  142.8360  165.7349 C.3     1  UNL1        0.0029
     25 C         144.1088  141.6755  164.8600 C.3     1  UNL1        0.0282
     26 C         144.6036  142.7403  163.9265 C.3     1  UNL1        0.0029
     27 C         143.5364  140.8534  165.9764 C.3     1  UNL1        0.0702
     28 C         143.6574  139.4074  165.5963 C.3     1  UNL1        0.0208
     29 C         144.3045  139.3359  164.2450 C.3     1  UNL1        0.0160
     30 C         144.5835  140.7377  163.7900 C.3     1  UNL1        0.0404
     31 C         144.9791  141.9986  163.0802 C.3     1  UNL1        0.0156
     32 N         145.1410  140.0634  162.5715 N.3     1  UNL1       -0.3231
     33 H         145.0499  139.0524  162.6708 H       1  UNL1        0.1188
     34 H         146.1259  140.3076  162.4684 H       1  UNL1        0.1188
@<TRIPOS>BOND
     1    24    25    1
     2    25    26    1
     3    25    27    1
     4    27    22    1
     5    22     1    1
     6     1     2   ar
     7     2    17    1
     8    17    18   am
     9    17    19    2
    10     2     3   ar
    11     3     4   ar
    12     4     5   ar
    13     5     6   ar
    14     6     7   ar
    15     7    10    1
    16    10    11   ar
    17    11    12   ar
    18    12    13   ar
    19    13    14   ar
    20    14    15   ar
    21    15    16    1
    22     7     8   ar
    23     8     9   ar
    24    27    28    1
    25    28    29    1
    26    29    30    1
    27    30    31    1
    28    30    32    1
    29    30    25    1
    30     9     1   ar
    31     9     5   ar
    32    15    10   ar
    33    22    23    1
    34    18    20    1
    35    18    21    1
    36    32    33    1
    37    32    34    1
@<TRIPOS>MOLECULE
*****
 34 37 0 0 0
SMALL
GASTEIGER

@<TRIPOS>ATOM
      1 C         139.1692  141.4540  162.6678 C.ar    1  UNL1        0.0685
      2 C         138.4979  140.7687  161.5147 C.ar    1  UNL1        0.0885
      3 C         137.9970  139.3630  161.6661 C.ar    1  UNL1        0.1263
      4 N         138.1675  138.6424  162.9707 N.ar    1  UNL1       -0.1633
      5 N         138.8389  139.3278  164.1238 N.ar    1  UNL1       -0.2270
      6 C         139.1463  138.8740  165.5200 C.ar    1  UNL1        0.1005
      7 C         139.8372  139.9993  166.2315 C.ar    1  UNL1        0.0229
      8 C         139.9568  141.1486  165.2750 C.ar    1  UNL1        0.0220
      9 C         139.3397  140.7335  163.9723 C.ar    1  UNL1        0.0961
     10 C         140.3233  139.9790  167.6504 C.ar    1  UNL1        0.0290
     11 C         139.3671  140.2469  168.7747 C.ar    1  UNL1        0.0023
     12 C         139.8532  140.2266  170.1936 C.ar    1  UNL1        0.0001
     13 C         141.2955  139.9384  170.4883 C.ar    1  UNL1        0.0023
     14 C         142.2517  139.6706  169.3641 C.ar    1  UNL1        0.0296
     15 C         141.7655  139.6909  167.9451 C.ar    1  UNL1        0.1401
     16 F         142.7217  139.4231  166.8209 F       1  UNL1       -0.2042
     17 C         138.3274  141.4893  160.2101 C.2     1  UNL1        0.2456
     18 N         138.3643  140.7242  158.9204 N.am    1  UNL1       -0.3252
     19 O         138.1200  142.9747  160.1953 O.2     1  UNL1       -0.2703
     20 H         138.5005  139.7492  158.9302 H       1  UNL1        0.1453
     21 H         138.2525  141.1971  158.0642 H       1  UNL1        0.1453
     22 N         139.6701  142.8598  162.5163 N.pl3   1  UNL1       -0.3327
     23 H         139.0401  143.6148  162.5653 H       1  UNL1        0.1468
     24 C         140.6936  144.4414  163.7323 C.3     1  UNL1        0.0029
     25 C         141.9704  144.1290  163.0097 C.3     1  UNL1        0.0282
     26 C         142.5429  145.2080  163.8802 C.3     1  UNL1        0.0029
     27 C         141.1309  143.1153  162.2902 C.3     1  UNL1        0.0702
     28 C         142.0085  142.4019  161.3049 C.3     1  UNL1        0.0208
     29 C         143.3904  142.9747  161.4154 C.3     1  UNL1        0.0160
     30 C         143.3668  144.0421  162.4690 C.3     1  UNL1        0.0404
     31 C         143.6474  145.1392  163.4526 C.3     1  UNL1        0.0156
     32 N         144.8219  144.1845  162.1340 N.3     1  UNL1       -0.3231
     33 H         145.0689  143.5192  161.4014 H       1  UNL1        0.1188
     34 H         145.3822  143.9980  162.9657 H       1  UNL1        0.1188
@<TRIPOS>BOND
     1    24    25    1
     2    25    26    1
     3    25    27    1
     4    27    22    1
     5    22     1    1
     6     1     2   ar
     7     2    17    1
     8    17    18   am
     9    17    19    2
    10     2     3   ar
    11     3     4   ar
    12     4     5   ar
    13     5     6   ar
    14     6     7   ar
    15     7    10    1
    16    10    11   ar
    17    11    12   ar
    18    12    13   ar
    19    13    14   ar
    20    14    15   ar
    21    15    16    1
    22     7     8   ar
    23     8     9   ar
    24    27    28    1
    25    28    29    1
    26    29    30    1
    27    30    31    1
    28    30    32    1
    29    30    25    1
    30     9     1   ar
    31     9     5   ar
    32    15    10   ar
    33    22    23    1
    34    18    20    1
    35    18    21    1
    36    32    33    1
    37    32    34    1
@<TRIPOS>MOLECULE
*****
 34 37 0 0 0
SMALL
GASTEIGER

@<TRIPOS>ATOM
      1 C         138.3413  140.4369  162.7997 C.ar    1  UNL1        0.0685
      2 C         138.2029  139.2368  161.9105 C.ar    1  UNL1        0.0885
      3 C         138.5371  137.8720  162.4352 C.ar    1  UNL1        0.1263
      4 N         139.0099  137.7071  163.8492 N.ar    1  UNL1       -0.1633
      5 N         139.1484  138.9071  164.7384 N.ar    1  UNL1       -0.2270
      6 C         139.5873  139.0537  166.1652 C.ar    1  UNL1        0.1005
      7 C         139.5243  140.5092  166.5223 C.ar    1  UNL1        0.0229
      8 C         139.0464  141.2622  165.3162 C.ar    1  UNL1        0.0220
      9 C         138.8141  140.2720  164.2137 C.ar    1  UNL1        0.0961
     10 C         139.8772  141.1069  167.8521 C.ar    1  UNL1        0.0290
     11 C         139.4765  140.4092  169.1180 C.ar    1  UNL1        0.0023
     12 C         139.8294  141.0069  170.4478 C.ar    1  UNL1        0.0001
     13 C         140.5830  142.3023  170.5116 C.ar    1  UNL1        0.0023
     14 C         140.9836  143.0000  169.2457 C.ar    1  UNL1        0.0296
     15 C         140.6307  142.4023  167.9159 C.ar    1  UNL1        0.1401
     16 F         141.0314  143.1000  166.6500 F       1  UNL1       -0.2042
     17 C         137.7301  139.4018  160.4964 C.2     1  UNL1        0.2456
     18 N         136.2610  139.4516  160.1979 N.am    1  UNL1       -0.3252
     19 O         138.7264  139.5169  159.3811 O.2     1  UNL1       -0.2703
     20 H         135.6070  139.3760  160.9300 H       1  UNL1        0.1453
     21 H         135.9506  139.5598  159.2699 H       1  UNL1        0.1453
     22 N         138.0070  141.8018  162.2750 N.pl3   1  UNL1       -0.3327
     23 H         137.0723  142.1108  162.2672 H       1  UNL1        0.1468
     24 C         137.9996  143.9653  162.8637 C.3     1  UNL1        0.0029
     25 C         139.2468  144.1596  162.0531 C.3     1  UNL1        0.0282
     26 C         139.1358  145.5827  162.5138 C.3     1  UNL1        0.0029
     27 C         139.0969  142.6958  161.7620 C.3     1  UNL1        0.0702
     28 C         140.2282  142.2828  160.8678 C.3     1  UNL1        0.0208
     29 C         141.0772  143.4914  160.6063 C.3     1  UNL1        0.0160
     30 C         140.4706  144.6513  161.3389 C.3     1  UNL1        0.0404
     31 C         140.1039  145.9717  161.9489 C.3     1  UNL1        0.0156
     32 N         141.6179  145.4191  160.7522 N.3     1  UNL1       -0.3231
     33 H         142.1917  144.7937  160.1865 H       1  UNL1        0.1188
     34 H         142.1837  145.8125  161.5042 H       1  UNL1        0.1188
@<TRIPOS>BOND
     1    24    25    1
     2    25    26    1
     3    25    27    1
     4    27    22    1
     5    22     1    1
     6     1     2   ar
     7     2    17    1
     8    17    18   am
     9    17    19    2
    10     2     3   ar
    11     3     4   ar
    12     4     5   ar
    13     5     6   ar
    14     6     7   ar
    15     7    10    1
    16    10    11   ar
    17    11    12   ar
    18    12    13   ar
    19    13    14   ar
    20    14    15   ar
    21    15    16    1
    22     7     8   ar
    23     8     9   ar
    24    27    28    1
    25    28    29    1
    26    29    30    1
    27    30    31    1
    28    30    32    1
    29    30    25    1
    30     9     1   ar
    31     9     5   ar
    32    15    10   ar
    33    22    23    1
    34    18    20    1
    35    18    21    1
    36    32    33    1
    37    32    34    1
@<TRIPOS>MOLECULE
*****
 34 37 0 0 0
SMALL
GASTEIGER

@<TRIPOS>ATOM
      1 C         140.4283  140.2706  165.9738 C.ar    1  UNL1        0.0685
      2 C         139.5396  139.9165  167.1292 C.ar    1  UNL1        0.0885
      3 C         138.5050  138.8412  166.9775 C.ar    1  UNL1        0.1263
      4 N         138.3590  138.1198  165.6704 N.ar    1  UNL1       -0.1633
      5 N         139.2477  138.4739  164.5151 N.ar    1  UNL1       -0.2270
      6 C         139.3357  137.9399  163.1161 C.ar    1  UNL1        0.1005
      7 C         140.4248  138.6853  162.4032 C.ar    1  UNL1        0.0229
      8 C         141.0099  139.6800  163.3616 C.ar    1  UNL1        0.0220
      9 C         140.2823  139.5493  164.6668 C.ar    1  UNL1        0.0961
     10 C         140.8537  138.4733  160.9815 C.ar    1  UNL1        0.0290
     11 C         139.8880  138.7242  159.8615 C.ar    1  UNL1        0.0023
     12 C         140.3169  138.5122  158.4398 C.ar    1  UNL1        0.0001
     13 C         141.7114  138.0493  158.1382 C.ar    1  UNL1        0.0023
     14 C         142.6771  137.7984  159.2582 C.ar    1  UNL1        0.0296
     15 C         142.2482  138.0104  160.6799 C.ar    1  UNL1        0.1401
     16 F         143.2139  137.7595  161.7999 F       1  UNL1       -0.2042
     17 C         139.6856  140.6379  168.4363 C.2     1  UNL1        0.2456
     18 N         139.4178  139.9175  169.7244 N.am    1  UNL1       -0.3252
     19 O         140.0994  142.0795  168.4552 O.2     1  UNL1       -0.2703
     20 H         139.1462  138.9713  169.7120 H       1  UNL1        0.1453
     21 H         139.5136  140.3909  170.5823 H       1  UNL1        0.1453
     22 N         141.4629  141.3460  166.1255 N.pl3   1  UNL1       -0.3327
     23 H         142.2301  141.2096  166.7272 H       1  UNL1        0.1468
     24 C         143.3123  142.3245  165.3193 C.3     1  UNL1        0.0029
     25 C         142.4526  143.4159  164.7538 C.3     1  UNL1        0.0282
     26 C         143.7563  143.9742  164.2654 C.3     1  UNL1        0.0029
     27 C         141.3287  142.6293  165.3604 C.3     1  UNL1        0.0702
     28 C         140.0468  143.3513  165.0677 C.3     1  UNL1        0.0208
     29 C         140.3786  144.5840  164.2802 C.3     1  UNL1        0.0160
     30 C         141.8654  144.6239  164.0862 C.3     1  UNL1        0.0404
     31 C         143.2919  144.9297  163.7373 C.3     1  UNL1        0.0156
     32 N         141.5765  145.8959  163.3456 N.3     1  UNL1       -0.3231
     33 H         140.5719  146.0728  163.3527 H       1  UNL1        0.1188
     34 H         141.8996  145.8093  162.3820 H       1  UNL1        0.1188
@<TRIPOS>BOND
     1    24    25    1
     2    25    26    1
     3    25    27    1
     4    27    22    1
     5    22     1    1
     6     1     2   ar
     7     2    17    1
     8    17    18   am
     9    17    19    2
    10     2     3   ar
    11     3     4   ar
    12     4     5   ar
    13     5     6   ar
    14     6     7   ar
    15     7    10    1
    16    10    11   ar
    17    11    12   ar
    18    12    13   ar
    19    13    14   ar
    20    14    15   ar
    21    15    16    1
    22     7     8   ar
    23     8     9   ar
    24    27    28    1
    25    28    29    1
    26    29    30    1
    27    30    31    1
    28    30    32    1
    29    30    25    1
    30     9     1   ar
    31     9     5   ar
    32    15    10   ar
    33    22    23    1
    34    18    20    1
    35    18    21    1
    36    32    33    1
    37    32    34    1
@<TRIPOS>MOLECULE
*****
 34 37 0 0 0
SMALL
GASTEIGER

@<TRIPOS>ATOM
      1 C         141.1385  140.5297  167.5786 C.ar    1  UNL1        0.0685
      2 C         141.4026  140.0860  168.9869 C.ar    1  UNL1        0.0885
      3 C         142.5011  139.1049  169.2706 C.ar    1  UNL1        0.1263
      4 N         143.3357  138.5674  168.1459 N.ar    1  UNL1       -0.1633
      5 N         143.0715  139.0111  166.7376 N.ar    1  UNL1       -0.2270
      6 C         143.7242  138.6565  165.4344 C.ar    1  UNL1        0.1005
      7 C         143.0289  139.4184  164.3454 C.ar    1  UNL1        0.0229
      8 C         141.9466  140.2440  164.9755 C.ar    1  UNL1        0.0220
      9 C         141.9729  139.9923  166.4540 C.ar    1  UNL1        0.0961
     10 C         143.3582  139.3643  162.8830 C.ar    1  UNL1        0.0290
     11 C         143.2665  138.0639  162.1411 C.ar    1  UNL1        0.0023
     12 C         143.5957  138.0099  160.6787 C.ar    1  UNL1        0.0001
     13 C         144.0167  139.2563  159.9581 C.ar    1  UNL1        0.0023
     14 C         144.1085  140.5567  160.6999 C.ar    1  UNL1        0.0296
     15 C         143.7792  140.6107  162.1624 C.ar    1  UNL1        0.1401
     16 F         143.8709  141.9112  162.9042 F       1  UNL1       -0.2042
     17 C         140.5681  140.6235  170.1116 C.2     1  UNL1        0.2456
     18 N         139.9814  139.6857  171.1246 N.am    1  UNL1       -0.3252
     19 O         140.3203  142.0986  170.2231 O.2     1  UNL1       -0.2703
     20 H         140.1440  138.7174  171.0514 H       1  UNL1        0.1453
     21 H         139.4336  140.0384  171.8628 H       1  UNL1        0.1453
     22 N         140.0398  141.5108  167.2950 N.pl3   1  UNL1       -0.3327
     23 H         139.9039  142.2832  167.8901 H       1  UNL1        0.1468
     24 C         139.6333  143.2568  165.9481 C.3     1  UNL1        0.0029
     25 C         138.7708  142.3665  165.1035 C.3     1  UNL1        0.0282
     26 C         138.5735  143.6039  164.2790 C.3     1  UNL1        0.0029
     27 C         139.1484  141.3151  166.1045 C.3     1  UNL1        0.0702
     28 C         138.4780  140.0338  165.7062 C.3     1  UNL1        0.0208
     29 C         137.6861  140.2932  164.4590 C.3     1  UNL1        0.0160
     30 C         137.8671  141.7348  164.0865 C.3     1  UNL1        0.0404
     31 C         137.8587  143.1043  163.4746 C.3     1  UNL1        0.0156
     32 N         136.9616  141.3895  162.9416 N.3     1  UNL1       -0.3231
     33 H         136.7007  140.4051  162.9993 H       1  UNL1        0.1188
     34 H         137.4464  141.5616  162.0608 H       1  UNL1        0.1188
@<TRIPOS>BOND
     1    24    25    1
     2    25    26    1
     3    25    27    1
     4    27    22    1
     5    22     1    1
     6     1     2   ar
     7     2    17    1
     8    17    18   am
     9    17    19    2
    10     2     3   ar
    11     3     4   ar
    12     4     5   ar
    13     5     6   ar
    14     6     7   ar
    15     7    10    1
    16    10    11   ar
    17    11    12   ar
    18    12    13   ar
    19    13    14   ar
    20    14    15   ar
    21    15    16    1
    22     7     8   ar
    23     8     9   ar
    24    27    28    1
    25    28    29    1
    26    29    30    1
    27    30    31    1
    28    30    32    1
    29    30    25    1
    30     9     1   ar
    31     9     5   ar
    32    15    10   ar
    33    22    23    1
    34    18    20    1
    35    18    21    1
    36    32    33    1
    37    32    34    1
@<TRIPOS>MOLECULE
*****
 34 37 0 0 0
SMALL
GASTEIGER

@<TRIPOS>ATOM
      1 C         142.3630  140.1404  167.2467 C.ar    1  UNL1        0.0685
      2 C         142.2283  139.7340  168.6843 C.ar    1  UNL1        0.0885
      3 C         141.3120  140.4948  169.5961 C.ar    1  UNL1        0.1263
      4 N         140.5302  141.6621  169.0704 N.ar    1  UNL1       -0.1633
      5 N         140.6649  142.0685  167.6328 N.ar    1  UNL1       -0.2270
      6 C         140.0263  143.1677  166.8365 C.ar    1  UNL1        0.1005
      7 C         140.5481  143.0862  165.4326 C.ar    1  UNL1        0.0229
      8 C         141.5091  141.9367  165.3611 C.ar    1  UNL1        0.0220
      9 C         141.5812  141.3077  166.7209 C.ar    1  UNL1        0.0961
     10 C         140.1745  143.9948  164.2990 C.ar    1  UNL1        0.0290
     11 C         138.7693  144.0005  163.7743 C.ar    1  UNL1        0.0023
     12 C         138.3957  144.9092  162.6407 C.ar    1  UNL1        0.0001
     13 C         139.4273  145.8120  162.0319 C.ar    1  UNL1        0.0023
     14 C         140.8325  145.8063  162.5566 C.ar    1  UNL1        0.0296
     15 C         141.2061  144.8976  163.6902 C.ar    1  UNL1        0.1401
     16 F         142.6113  144.8919  164.2149 F       1  UNL1       -0.2042
     17 C         143.0101  138.5667  169.2100 C.2     1  UNL1        0.2456
     18 N         143.0775  138.3132  170.6869 N.am    1  UNL1       -0.3252
     19 O         143.7245  137.6530  168.2589 O.2     1  UNL1       -0.2703
     20 H         142.6085  138.9130  171.3111 H       1  UNL1        0.1453
     21 H         143.5905  137.5471  171.0319 H       1  UNL1        0.1453
     22 N         143.2793  139.3796  166.3348 N.pl3   1  UNL1       -0.3327
     23 H         144.2373  139.3058  166.5494 H       1  UNL1        0.1468
     24 C         144.3967  139.6233  164.4062 C.3     1  UNL1        0.0029
     25 C         143.3496  138.7899  163.7286 C.3     1  UNL1        0.0282
     26 C         144.1821  139.0229  162.5028 C.3     1  UNL1        0.0029
     27 C         142.7360  138.7312  165.0960 C.3     1  UNL1        0.0702
     28 C         141.4838  137.9102  165.0074 C.3     1  UNL1        0.0208
     29 C         141.3234  137.4616  163.5851 C.3     1  UNL1        0.0160
     30 C         142.4766  138.0053  162.7948 C.3     1  UNL1        0.0404
     31 C         143.4916  138.4023  161.7641 C.3     1  UNL1        0.0156
     32 N         141.8158  137.3036  161.6454 N.3     1  UNL1       -0.3231
     33 H         140.9671  136.8414  161.9719 H       1  UNL1        0.1188
     34 H         142.4543  136.6085  161.2589 H       1  UNL1        0.1188
@<TRIPOS>BOND
     1    24    25    1
     2    25    26    1
     3    25    27    1
     4    27    22    1
     5    22     1    1
     6     1     2   ar
     7     2    17    1
     8    17    18   am
     9    17    19    2
    10     2     3   ar
    11     3     4   ar
    12     4     5   ar
    13     5     6   ar
    14     6     7   ar
    15     7    10    1
    16    10    11   ar
    17    11    12   ar
    18    12    13   ar
    19    13    14   ar
    20    14    15   ar
    21    15    16    1
    22     7     8   ar
    23     8     9   ar
    24    27    28    1
    25    28    29    1
    26    29    30    1
    27    30    31    1
    28    30    32    1
    29    30    25    1
    30     9     1   ar
    31     9     5   ar
    32    15    10   ar
    33    22    23    1
    34    18    20    1
    35    18    21    1
    36    32    33    1
    37    32    34    1
@<TRIPOS>MOLECULE
*****
 34 37 0 0 0
SMALL
GASTEIGER

@<TRIPOS>ATOM
      1 C         140.4222  140.4238  167.3179 C.ar    1  UNL1        0.0685
      2 C         140.4547  140.6674  168.7976 C.ar    1  UNL1        0.0885
      3 C         141.4533  141.6241  169.3784 C.ar    1  UNL1        0.1263
      4 N         142.4194  142.3373  168.4795 N.ar    1  UNL1       -0.1633
      5 N         142.3869  142.0937  166.9998 N.ar    1  UNL1       -0.2270
      6 C         143.2081  142.6473  165.8732 C.ar    1  UNL1        0.1005
      7 C         142.7170  142.0326  164.5961 C.ar    1  UNL1        0.0229
      8 C         141.5923  141.0991  164.9334 C.ar    1  UNL1        0.0220
      9 C         141.3882  141.1370  166.4190 C.ar    1  UNL1        0.0961
     10 C         143.2560  142.3037  163.2228 C.ar    1  UNL1        0.0290
     11 C         144.6612  141.9089  162.8772 C.ar    1  UNL1        0.0023
     12 C         145.2001  142.1801  161.5038 C.ar    1  UNL1        0.0001
     13 C         144.3338  142.8459  160.4761 C.ar    1  UNL1        0.0023
     14 C         142.9286  143.2407  160.8217 C.ar    1  UNL1        0.0296
     15 C         142.3897  142.9695  162.1950 C.ar    1  UNL1        0.1401
     16 F         140.9844  143.3642  162.5407 F       1  UNL1       -0.2042
     17 C         139.4886  139.9541  169.6965 C.2     1  UNL1        0.2456
     18 N         139.8838  139.6142  171.1030 N.am    1  UNL1       -0.3252
     19 O         138.1274  139.5809  169.1889 O.2     1  UNL1       -0.2703
     20 H         140.7772  139.8592  171.4361 H       1  UNL1        0.1453
     21 H         139.2497  139.1461  171.6930 H       1  UNL1        0.1453
     22 N         139.4235  139.4670  166.7371 N.pl3   1  UNL1       -0.3327
     23 H         139.1719  138.6557  167.2348 H       1  UNL1        0.1468
     24 C         139.5096  137.8814  165.1541 C.3     1  UNL1        0.0029
     25 C         138.7742  138.8059  164.2297 C.3     1  UNL1        0.0282
     26 C         138.8939  137.6722  163.2549 C.3     1  UNL1        0.0029
     27 C         138.8082  139.7463  165.3978 C.3     1  UNL1        0.0702
     28 C         138.1189  141.0151  164.9917 C.3     1  UNL1        0.0208
     29 C         137.6589  140.8589  163.5725 C.3     1  UNL1        0.0160
     30 C         138.0639  139.4935  163.1017 C.3     1  UNL1        0.0404
     31 C         138.3321  138.2161  162.3627 C.3     1  UNL1        0.0156
     32 N         137.4096  139.9140  161.8191 N.3     1  UNL1       -0.3231
     33 H         137.0443  140.8612  161.9183 H       1  UNL1        0.1188
     34 H         136.6443  139.2754  161.6024 H       1  UNL1        0.1188
@<TRIPOS>BOND
     1    24    25    1
     2    25    26    1
     3    25    27    1
     4    27    22    1
     5    22     1    1
     6     1     2   ar
     7     2    17    1
     8    17    18   am
     9    17    19    2
    10     2     3   ar
    11     3     4   ar
    12     4     5   ar
    13     5     6   ar
    14     6     7   ar
    15     7    10    1
    16    10    11   ar
    17    11    12   ar
    18    12    13   ar
    19    13    14   ar
    20    14    15   ar
    21    15    16    1
    22     7     8   ar
    23     8     9   ar
    24    27    28    1
    25    28    29    1
    26    29    30    1
    27    30    31    1
    28    30    32    1
    29    30    25    1
    30     9     1   ar
    31     9     5   ar
    32    15    10   ar
    33    22    23    1
    34    18    20    1
    35    18    21    1
    36    32    33    1
    37    32    34    1
@<TRIPOS>MOLECULE
*****
 34 37 0 0 0
SMALL
GASTEIGER

@<TRIPOS>ATOM
      1 C         141.0763  143.3173  163.0235 C.ar    1  UNL1        0.0685
      2 C         140.1699  144.3197  162.3726 C.ar    1  UNL1        0.0885
      3 C         139.1566  145.0595  163.1946 C.ar    1  UNL1        0.1263
      4 N         139.0497  144.7970  164.6677 N.ar    1  UNL1       -0.1633
      5 N         139.9560  143.7946  165.3185 N.ar    1  UNL1       -0.2270
      6 C         140.0818  143.3287  166.7388 C.ar    1  UNL1        0.1005
      7 C         141.1729  142.3009  166.7944 C.ar    1  UNL1        0.0229
      8 C         141.7214  142.1315  165.4086 C.ar    1  UNL1        0.0220
      9 C         140.9693  143.0548  164.4964 C.ar    1  UNL1        0.0961
     10 C         141.6345  141.5705  168.0206 C.ar    1  UNL1        0.0290
     11 C         142.8773  142.0136  168.7342 C.ar    1  UNL1        0.0023
     12 C         143.3388  141.2832  169.9604 C.ar    1  UNL1        0.0001
     13 C         142.5575  140.1098  170.4731 C.ar    1  UNL1        0.0023
     14 C         141.3147  139.6668  169.7596 C.ar    1  UNL1        0.0296
     15 C         140.8532  140.3972  168.5333 C.ar    1  UNL1        0.1401
     16 F         139.6104  139.9542  167.8198 F       1  UNL1       -0.2042
     17 C         140.2769  144.5822  160.8996 C.2     1  UNL1        0.2456
     18 N         141.3505  145.4892  160.3755 N.am    1  UNL1       -0.3252
     19 O         139.3103  143.9378  159.9508 O.2     1  UNL1       -0.2703
     20 H         141.9850  145.9121  160.9983 H       1  UNL1        0.1453
     21 H         141.4208  145.6615  159.4088 H       1  UNL1        0.1453
     22 N         142.0896  142.5774  162.2014 N.pl3   1  UNL1       -0.3327
     23 H         142.8632  143.0565  161.8256 H       1  UNL1        0.1468
     24 C         143.8732  141.2355  162.4149 C.3     1  UNL1        0.0029
     25 C         143.0030  140.0699  162.0485 C.3     1  UNL1        0.0282
     26 C         144.2639  139.2761  162.2216 C.3     1  UNL1        0.0029
     27 C         141.9241  141.1075  161.9519 C.3     1  UNL1        0.0702
     28 C         140.6508  140.4173  161.5620 C.3     1  UNL1        0.0208
     29 C         140.9427  138.9531  161.4176 C.3     1  UNL1        0.0160
     30 C         142.3965  138.7385  161.7183 C.3     1  UNL1        0.0404
     31 C         143.7841  138.2229  161.9605 C.3     1  UNL1        0.0156
     32 N         142.0800  137.2991  161.4387 N.3     1  UNL1       -0.3231
     33 H         141.0924  137.2082  161.2004 H       1  UNL1        0.1188
     34 H         142.2828  136.7393  162.2669 H       1  UNL1        0.1188
@<TRIPOS>BOND
     1    24    25    1
     2    25    26    1
     3    25    27    1
     4    27    22    1
     5    22     1    1
     6     1     2   ar
     7     2    17    1
     8    17    18   am
     9    17    19    2
    10     2     3   ar
    11     3     4   ar
    12     4     5   ar
    13     5     6   ar
    14     6     7   ar
    15     7    10    1
    16    10    11   ar
    17    11    12   ar
    18    12    13   ar
    19    13    14   ar
    20    14    15   ar
    21    15    16    1
    22     7     8   ar
    23     8     9   ar
    24    27    28    1
    25    28    29    1
    26    29    30    1
    27    30    31    1
    28    30    32    1
    29    30    25    1
    30     9     1   ar
    31     9     5   ar
    32    15    10   ar
    33    22    23    1
    34    18    20    1
    35    18    21    1
    36    32    33    1
    37    32    34    1
