@<TRIPOS>MOLECULE
*****
 32 36 0 0 0
SMALL
GASTEIGER

@<TRIPOS>ATOM
      1 N         142.5496  138.2373  163.3005 N.pl3   1  UNL1       -0.3317
      2 H         143.0886  137.4643  163.5855 H       1  UNL1        0.1468
      3 C         142.0023  139.1880  164.3236 C.ar    1  UNL1        0.0432
      4 C         140.6999  138.8884  165.0049 C.ar    1  UNL1        0.0045
      5 C         140.1526  139.8391  166.0280 C.ar    1  UNL1        0.0561
      6 N         140.9077  141.0894  166.3696 N.ar    1  UNL1       -0.2499
      7 C         142.2099  141.3890  165.6883 C.ar    1  UNL1        0.0829
      8 C         142.9650  142.6393  166.0299 C.ar    1  UNL1        0.0305
      9 C         144.2672  142.9389  165.3485 C.ar    1  UNL1        0.0592
     10 CL        145.0222  144.1891  165.6902 Cl      1  UNL1       -0.0822
     11 C         144.8145  141.9881  164.3255 C.ar    1  UNL1        0.0115
     12 C         144.0596  140.7379  163.9838 C.ar    1  UNL1        0.0036
     13 C         142.7572  140.4382  164.6652 C.ar    1  UNL1        0.0305
     14 C         138.8503  139.5395  166.7093 C.3     1  UNL1        0.0455
     15 C         138.0954  138.2892  166.3677 C.3     1  UNL1        0.0066
     16 C         138.6427  137.3385  165.3446 C.3     1  UNL1        0.0052
     17 C         139.9449  137.6381  164.6633 C.3     1  UNL1        0.0288
     18 C         142.2756  138.4643  161.8433 C.3     1  UNL1        0.1044
     19 C         140.9108  138.1892  161.2850 C.3     1  UNL1        0.0900
     20 N         140.0463  139.3249  160.8237 N.3     1  UNL1       -0.2968
     21 H         140.5957  139.8583  160.1499 H       1  UNL1        0.1233
     22 O         138.1422  145.4724  166.1464 O.2     1  UNL1       -0.2726
     23 C         138.6814  144.4881  165.1513 C.2     1  UNL1        0.2497
     24 C         140.0125  144.7295  164.5033 C.3     1  UNL1        0.1129
     25 C         140.5517  143.7451  163.5081 C.2     1  UNL1       -0.0198
     26 C         139.7598  142.5193  163.1610 C.2     1  UNL1       -0.0134
     27 C         138.4287  142.2780  163.8091 C.2     1  UNL1        0.0468
     28 N         137.8895  143.2623  164.8042 N.am    1  UNL1       -0.1836
     29 C         137.6369  141.0523  163.4620 C.3     1  UNL1        0.0443
     30 C         138.1761  140.0679  162.4668 C.3     1  UNL1        0.0221
     31 C         139.5071  140.3093  161.8188 C.3     1  UNL1        0.0588
     32 C         140.2990  141.5350  162.1659 C.3     1  UNL1        0.0427
@<TRIPOS>BOND
     1    22    23    2
     2    23    24    1
     3    24    25    1
     4    25    26    2
     5    26    27    1
     6    27    28    2
     7    27    29    1
     8    29    30    1
     9    30    31    1
    10    31    20    1
    11    20    19    1
    12    19    18    1
    13    18     1    1
    14     1     3    1
    15     3     4   ar
    16     4     5   ar
    17     5     6   ar
    18     6     7   ar
    19     7     8   ar
    20     8     9   ar
    21     9    10    1
    22     9    11   ar
    23    11    12   ar
    24    12    13   ar
    25     5    14    1
    26    14    15    1
    27    15    16    1
    28    16    17    1
    29    31    32    1
    30    28    23    1
    31    13     3   ar
    32    32    26    1
    33    17     4    1
    34    13     7   ar
    35    20    21    1
    36     1     2    1
@<TRIPOS>MOLECULE
*****
 32 36 0 0 0
SMALL
GASTEIGER

@<TRIPOS>ATOM
      1 N         142.4277  139.7806  162.2734 N.pl3   1  UNL1       -0.3317
      2 H         142.1978  139.6554  161.3243 H       1  UNL1        0.1468
      3 C         141.5437  140.6110  163.1560 C.ar    1  UNL1        0.0432
      4 C         141.6544  142.1068  163.1342 C.ar    1  UNL1        0.0045
      5 C         140.7704  142.9372  164.0168 C.ar    1  UNL1        0.0561
      6 N         139.7758  142.2718  164.9213 N.ar    1  UNL1       -0.2499
      7 C         139.6652  140.7761  164.9431 C.ar    1  UNL1        0.0829
      8 C         138.6705  140.1107  165.8476 C.ar    1  UNL1        0.0305
      9 C         138.5599  138.6149  165.8694 C.ar    1  UNL1        0.0592
     10 CL        137.5654  137.9496  166.7739 Cl      1  UNL1       -0.0822
     11 C         139.4439  137.7845  164.9868 C.ar    1  UNL1        0.0115
     12 C         140.4385  138.4499  164.0823 C.ar    1  UNL1        0.0036
     13 C         140.5492  139.9457  164.0605 C.ar    1  UNL1        0.0305
     14 C         140.8810  144.4329  163.9950 C.3     1  UNL1        0.0455
     15 C         141.8756  145.0983  163.0905 C.3     1  UNL1        0.0066
     16 C         142.7596  144.2679  162.2079 C.3     1  UNL1        0.0052
     17 C         142.6490  142.7721  162.2297 C.3     1  UNL1        0.0288
     18 C         143.6620  139.1409  162.8368 C.3     1  UNL1        0.1044
     19 C         144.2679  139.6674  164.1040 C.3     1  UNL1        0.0900
     20 N         143.7789  139.1703  165.4321 N.3     1  UNL1       -0.2968
     21 H         143.1338  138.4038  165.2402 H       1  UNL1        0.1233
     22 O         139.2688  143.3075  171.1147 O.2     1  UNL1       -0.2726
     23 C         139.9738  142.3725  170.1772 C.2     1  UNL1        0.2497
     24 C         139.6933  140.9001  170.2348 C.3     1  UNL1        0.1129
     25 C         140.3982  139.9651  169.2972 C.2     1  UNL1       -0.0198
     26 C         141.3836  140.5027  168.3022 C.2     1  UNL1       -0.0134
     27 C         141.6641  141.9751  168.2446 C.2     1  UNL1        0.0468
     28 N         140.9591  142.9100  169.1822 N.am    1  UNL1       -0.1836
     29 C         142.6494  142.5125  167.2496 C.3     1  UNL1        0.0443
     30 C         143.3544  141.5776  166.3121 C.3     1  UNL1        0.0221
     31 C         143.0739  140.1052  166.3696 C.3     1  UNL1        0.0588
     32 C         142.0886  139.5677  167.3646 C.3     1  UNL1        0.0427
@<TRIPOS>BOND
     1    22    23    2
     2    23    24    1
     3    24    25    1
     4    25    26    2
     5    26    27    1
     6    27    28    2
     7    27    29    1
     8    29    30    1
     9    30    31    1
    10    31    20    1
    11    20    19    1
    12    19    18    1
    13    18     1    1
    14     1     3    1
    15     3     4   ar
    16     4     5   ar
    17     5     6   ar
    18     6     7   ar
    19     7     8   ar
    20     8     9   ar
    21     9    10    1
    22     9    11   ar
    23    11    12   ar
    24    12    13   ar
    25     5    14    1
    26    14    15    1
    27    15    16    1
    28    16    17    1
    29    31    32    1
    30    28    23    1
    31    13     3   ar
    32    32    26    1
    33    17     4    1
    34    13     7   ar
    35    20    21    1
    36     1     2    1
@<TRIPOS>MOLECULE
*****
 32 36 0 0 0
SMALL
GASTEIGER

@<TRIPOS>ATOM
      1 N         138.0896  139.5740  164.8265 N.pl3   1  UNL1       -0.3317
      2 H         137.1500  139.5642  164.5328 H       1  UNL1        0.1468
      3 C         139.1072  140.3647  164.0588 C.ar    1  UNL1        0.0432
      4 C         139.0191  141.8616  164.0183 C.ar    1  UNL1        0.0045
      5 C         140.0366  142.6523  163.2506 C.ar    1  UNL1        0.0561
      6 N         141.1424  141.9461  162.5235 N.ar    1  UNL1       -0.2499
      7 C         141.2305  140.4492  162.5641 C.ar    1  UNL1        0.0829
      8 C         142.3363  139.7430  161.8369 C.ar    1  UNL1        0.0305
      9 C         142.4244  138.2462  161.8775 C.ar    1  UNL1        0.0592
     10 CL        143.5302  137.5401  161.1504 Cl      1  UNL1       -0.0822
     11 C         141.4068  137.4555  162.6452 C.ar    1  UNL1        0.0115
     12 C         140.3011  138.1616  163.3723 C.ar    1  UNL1        0.0036
     13 C         140.2129  139.6585  163.3317 C.ar    1  UNL1        0.0305
     14 C         139.9485  144.1491  163.2101 C.3     1  UNL1        0.0455
     15 C         138.8428  144.8552  163.9372 C.3     1  UNL1        0.0066
     16 C         137.8252  144.0645  164.7048 C.3     1  UNL1        0.0052
     17 C         137.9133  142.5677  164.7454 C.3     1  UNL1        0.0288
     18 C         138.5037  138.7981  166.0417 C.3     1  UNL1        0.1044
     19 C         138.5029  139.4578  167.3889 C.3     1  UNL1        0.0900
     20 N         139.7991  139.8589  168.0284 N.3     1  UNL1       -0.2968
     21 H         139.5765  140.5721  168.7228 H       1  UNL1        0.1233
     22 O         146.3650  141.6678  163.1945 O.2     1  UNL1       -0.2726
     23 C         145.2511  141.1198  164.0366 C.2     1  UNL1        0.2497
     24 C         145.1342  139.6403  164.2549 C.3     1  UNL1        0.1129
     25 C         144.0203  139.0922  165.0970 C.2     1  UNL1       -0.0198
     26 C         143.0235  140.0236  165.7207 C.2     1  UNL1       -0.0134
     27 C         143.1405  141.5030  165.5023 C.2     1  UNL1        0.0468
     28 N         144.2543  142.0511  164.6602 N.am    1  UNL1       -0.1836
     29 C         142.1437  142.4343  166.1259 C.3     1  UNL1        0.0443
     30 C         141.0299  141.8863  166.9680 C.3     1  UNL1        0.0221
     31 C         140.9129  140.4069  167.1864 C.3     1  UNL1        0.0588
     32 C         141.9097  139.4756  166.5627 C.3     1  UNL1        0.0427
@<TRIPOS>BOND
     1    22    23    2
     2    23    24    1
     3    24    25    1
     4    25    26    2
     5    26    27    1
     6    27    28    2
     7    27    29    1
     8    29    30    1
     9    30    31    1
    10    31    20    1
    11    20    19    1
    12    19    18    1
    13    18     1    1
    14     1     3    1
    15     3     4   ar
    16     4     5   ar
    17     5     6   ar
    18     6     7   ar
    19     7     8   ar
    20     8     9   ar
    21     9    10    1
    22     9    11   ar
    23    11    12   ar
    24    12    13   ar
    25     5    14    1
    26    14    15    1
    27    15    16    1
    28    16    17    1
    29    31    32    1
    30    28    23    1
    31    13     3   ar
    32    32    26    1
    33    17     4    1
    34    13     7   ar
    35    20    21    1
    36     1     2    1
@<TRIPOS>MOLECULE
*****
 32 36 0 0 0
SMALL
GASTEIGER

@<TRIPOS>ATOM
      1 N         140.2672  137.4947  163.1102 N.pl3   1  UNL1       -0.3317
      2 H         140.5012  136.5420  163.1921 H       1  UNL1        0.1468
      3 C         140.7089  138.4687  164.1621 C.ar    1  UNL1        0.0432
      4 C         139.8582  138.6985  165.3760 C.ar    1  UNL1        0.0045
      5 C         140.2999  139.6725  166.4279 C.ar    1  UNL1        0.0561
      6 N         141.5923  140.4166  166.2657 N.ar    1  UNL1       -0.2499
      7 C         142.4428  140.1867  165.0518 C.ar    1  UNL1        0.0829
      8 C         143.7352  140.9308  164.8896 C.ar    1  UNL1        0.0305
      9 C         144.5857  140.7010  163.6757 C.ar    1  UNL1        0.0592
     10 CL        145.8780  141.4451  163.5136 Cl      1  UNL1       -0.0822
     11 C         144.1440  139.7270  162.6239 C.ar    1  UNL1        0.0115
     12 C         142.8518  138.9829  162.7860 C.ar    1  UNL1        0.0036
     13 C         142.0011  139.2128  163.9999 C.ar    1  UNL1        0.0305
     14 C         139.4494  139.9023  167.6418 C.3     1  UNL1        0.0455
     15 C         138.1571  139.1582  167.8039 C.3     1  UNL1        0.0066
     16 C         137.7154  138.1843  166.7521 C.3     1  UNL1        0.0052
     17 C         138.5659  137.9544  165.5381 C.3     1  UNL1        0.0288
     18 C         139.4687  137.9725  161.9336 C.3     1  UNL1        0.1044
     19 C         138.0503  138.4222  162.1226 C.3     1  UNL1        0.0900
     20 N         137.7054  139.8785  162.0213 N.3     1  UNL1       -0.2968
     21 H         137.6125  140.0907  161.0280 H       1  UNL1        0.1233
     22 O         143.5690  145.4202  164.1793 O.2     1  UNL1       -0.2726
     23 C         142.6462  144.3889  163.6006 C.2     1  UNL1        0.2497
     24 C         142.9728  143.7429  162.2868 C.3     1  UNL1        0.1129
     25 C         142.0500  142.7116  161.7082 C.2     1  UNL1       -0.0198
     26 C         140.8005  142.3263  162.4434 C.2     1  UNL1       -0.0134
     27 C         140.4739  142.9723  163.7572 C.2     1  UNL1        0.0468
     28 N         141.3968  144.0036  164.3358 N.am    1  UNL1       -0.1836
     29 C         139.2245  142.5871  164.4923 C.3     1  UNL1        0.0443
     30 C         138.3017  141.5558  163.9137 C.3     1  UNL1        0.0221
     31 C         138.6282  140.9098  162.6000 C.3     1  UNL1        0.0588
     32 C         139.8777  141.2950  161.8648 C.3     1  UNL1        0.0427
@<TRIPOS>BOND
     1    22    23    2
     2    23    24    1
     3    24    25    1
     4    25    26    2
     5    26    27    1
     6    27    28    2
     7    27    29    1
     8    29    30    1
     9    30    31    1
    10    31    20    1
    11    20    19    1
    12    19    18    1
    13    18     1    1
    14     1     3    1
    15     3     4   ar
    16     4     5   ar
    17     5     6   ar
    18     6     7   ar
    19     7     8   ar
    20     8     9   ar
    21     9    10    1
    22     9    11   ar
    23    11    12   ar
    24    12    13   ar
    25     5    14    1
    26    14    15    1
    27    15    16    1
    28    16    17    1
    29    31    32    1
    30    28    23    1
    31    13     3   ar
    32    32    26    1
    33    17     4    1
    34    13     7   ar
    35    20    21    1
    36     1     2    1
@<TRIPOS>MOLECULE
*****
 32 36 0 0 0
SMALL
GASTEIGER

@<TRIPOS>ATOM
      1 N         138.8869  140.6490  161.0615 N.pl3   1  UNL1       -0.3317
      2 H         138.8644  141.0330  160.1552 H       1  UNL1        0.1468
      3 C         139.8897  141.1441  162.0611 C.ar    1  UNL1        0.0432
      4 C         141.2878  140.6005  162.0532 C.ar    1  UNL1        0.0045
      5 C         142.2906  141.0956  163.0529 C.ar    1  UNL1        0.0561
      6 N         141.8953  142.1342  164.0604 N.ar    1  UNL1       -0.2499
      7 C         140.4973  142.6778  164.0682 C.ar    1  UNL1        0.0829
      8 C         140.1021  143.7165  165.0757 C.ar    1  UNL1        0.0305
      9 C         138.7041  144.2600  165.0836 C.ar    1  UNL1        0.0592
     10 CL        138.3089  145.2987  166.0910 Cl      1  UNL1       -0.0822
     11 C         137.7013  143.7650  164.0839 C.ar    1  UNL1        0.0115
     12 C         138.0965  142.7263  163.0764 C.ar    1  UNL1        0.0036
     13 C         139.4945  142.1827  163.0686 C.ar    1  UNL1        0.0305
     14 C         143.6886  140.5520  163.0450 C.3     1  UNL1        0.0455
     15 C         144.0838  139.5134  162.0375 C.3     1  UNL1        0.0066
     16 C         143.0809  139.0183  161.0379 C.3     1  UNL1        0.0052
     17 C         141.6829  139.5619  161.0457 C.3     1  UNL1        0.0288
     18 C         137.9183  139.5690  161.4427 C.3     1  UNL1        0.1044
     19 C         138.3698  138.1393  161.4905 C.3     1  UNL1        0.0900
     20 N         138.4948  137.4361  162.8095 N.3     1  UNL1       -0.2968
     21 H         137.5741  137.4657  163.2474 H       1  UNL1        0.1233
     22 O         142.9802  140.9135  168.9364 O.2     1  UNL1       -0.2726
     23 C         141.9986  140.4218  167.9143 C.2     1  UNL1        0.2497
     24 C         140.5942  140.9490  167.9088 C.3     1  UNL1        0.1129
     25 C         139.6126  140.4572  166.8867 C.2     1  UNL1       -0.0198
     26 C         140.0354  139.4383  165.8701 C.2     1  UNL1       -0.0134
     27 C         141.4397  138.9113  165.8757 C.2     1  UNL1        0.0468
     28 N         142.4213  139.4030  166.8978 N.am    1  UNL1       -0.1836
     29 C         141.8624  137.8924  164.8592 C.3     1  UNL1        0.0443
     30 C         140.8807  137.4007  163.8372 C.3     1  UNL1        0.0221
     31 C         139.4764  137.9278  163.8316 C.3     1  UNL1        0.0588
     32 C         139.0538  138.9466  164.8481 C.3     1  UNL1        0.0427
@<TRIPOS>BOND
     1    22    23    2
     2    23    24    1
     3    24    25    1
     4    25    26    2
     5    26    27    1
     6    27    28    2
     7    27    29    1
     8    29    30    1
     9    30    31    1
    10    31    20    1
    11    20    19    1
    12    19    18    1
    13    18     1    1
    14     1     3    1
    15     3     4   ar
    16     4     5   ar
    17     5     6   ar
    18     6     7   ar
    19     7     8   ar
    20     8     9   ar
    21     9    10    1
    22     9    11   ar
    23    11    12   ar
    24    12    13   ar
    25     5    14    1
    26    14    15    1
    27    15    16    1
    28    16    17    1
    29    31    32    1
    30    28    23    1
    31    13     3   ar
    32    32    26    1
    33    17     4    1
    34    13     7   ar
    35    20    21    1
    36     1     2    1
@<TRIPOS>MOLECULE
*****
 32 36 0 0 0
SMALL
GASTEIGER

@<TRIPOS>ATOM
      1 N         142.8329  138.0696  162.8703 N.pl3   1  UNL1       -0.3317
      2 H         143.4769  137.3657  163.1133 H       1  UNL1        0.1468
      3 C         142.4497  139.1149  163.8755 C.ar    1  UNL1        0.0432
      4 C         143.3304  140.3107  164.0868 C.ar    1  UNL1        0.0045
      5 C         142.9472  141.3561  165.0920 C.ar    1  UNL1        0.0561
      6 N         141.6833  141.2057  165.8857 N.ar    1  UNL1       -0.2499
      7 C         140.8027  140.0100  165.6744 C.ar    1  UNL1        0.0829
      8 C         139.5388  139.8596  166.4682 C.ar    1  UNL1        0.0305
      9 C         138.6582  138.6639  166.2568 C.ar    1  UNL1        0.0592
     10 CL        137.3944  138.5135  167.0505 Cl      1  UNL1       -0.0822
     11 C         139.0414  137.6185  165.2516 C.ar    1  UNL1        0.0115
     12 C         140.3052  137.7688  164.4579 C.ar    1  UNL1        0.0036
     13 C         141.1859  138.9646  164.6692 C.ar    1  UNL1        0.0305
     14 C         143.8278  142.5518  165.3033 C.3     1  UNL1        0.0455
     15 C         145.0916  142.7022  164.5096 C.3     1  UNL1        0.0066
     16 C         145.4748  141.6568  163.5044 C.3     1  UNL1        0.0052
     17 C         144.5942  140.4611  163.2931 C.3     1  UNL1        0.0288
     18 C         142.2349  138.0967  161.4949 C.3     1  UNL1        0.1044
     19 C         142.6703  139.1392  160.5082 C.3     1  UNL1        0.0900
     20 N         141.7249  140.2317  160.1052 N.3     1  UNL1       -0.2968
     21 H         142.1557  140.7189  159.3194 H       1  UNL1        0.1233
     22 O         138.4531  145.3302  165.8543 O.2     1  UNL1       -0.2726
     23 C         138.8531  144.2801  164.8606 C.2     1  UNL1        0.2497
     24 C         137.9813  143.0782  164.6476 C.3     1  UNL1        0.1129
     25 C         138.3813  142.0281  163.6539 C.2     1  UNL1       -0.0198
     26 C         139.6531  142.1800  162.8732 C.2     1  UNL1       -0.0134
     27 C         140.5249  143.3819  163.0862 C.2     1  UNL1        0.0468
     28 N         140.1249  144.4320  164.0799 N.am    1  UNL1       -0.1836
     29 C         141.7967  143.5337  162.3056 C.3     1  UNL1        0.0443
     30 C         142.1967  142.4837  161.3119 C.3     1  UNL1        0.0221
     31 C         141.3249  141.2818  161.0989 C.3     1  UNL1        0.0588
     32 C         140.0531  141.1300  161.8796 C.3     1  UNL1        0.0427
@<TRIPOS>BOND
     1    22    23    2
     2    23    24    1
     3    24    25    1
     4    25    26    2
     5    26    27    1
     6    27    28    2
     7    27    29    1
     8    29    30    1
     9    30    31    1
    10    31    20    1
    11    20    19    1
    12    19    18    1
    13    18     1    1
    14     1     3    1
    15     3     4   ar
    16     4     5   ar
    17     5     6   ar
    18     6     7   ar
    19     7     8   ar
    20     8     9   ar
    21     9    10    1
    22     9    11   ar
    23    11    12   ar
    24    12    13   ar
    25     5    14    1
    26    14    15    1
    27    15    16    1
    28    16    17    1
    29    31    32    1
    30    28    23    1
    31    13     3   ar
    32    32    26    1
    33    17     4    1
    34    13     7   ar
    35    20    21    1
    36     1     2    1
@<TRIPOS>MOLECULE
*****
 32 36 0 0 0
SMALL
GASTEIGER

@<TRIPOS>ATOM
      1 N         141.7379  138.4568  165.6196 N.pl3   1  UNL1       -0.3317
      2 H         142.1696  137.6895  166.0603 H       1  UNL1        0.1468
      3 C         142.1640  139.8542  165.9597 C.ar    1  UNL1        0.0432
      4 C         143.2269  140.5328  165.1473 C.ar    1  UNL1        0.0045
      5 C         143.6530  141.9302  165.4873 C.ar    1  UNL1        0.0561
      6 N         143.0164  142.6490  166.6398 N.ar    1  UNL1       -0.2499
      7 C         141.9536  141.9703  167.4521 C.ar    1  UNL1        0.0829
      8 C         141.3170  142.6891  168.6046 C.ar    1  UNL1        0.0305
      9 C         140.2542  142.0105  169.4170 C.ar    1  UNL1        0.0592
     10 CL        139.6176  142.7292  170.5694 Cl      1  UNL1       -0.0822
     11 C         139.8280  140.6130  169.0769 C.ar    1  UNL1        0.0115
     12 C         140.4646  139.8943  167.9245 C.ar    1  UNL1        0.0036
     13 C         141.5275  140.5729  167.1121 C.ar    1  UNL1        0.0305
     14 C         144.7158  142.6089  164.6750 C.3     1  UNL1        0.0455
     15 C         145.3524  141.8901  163.5226 C.3     1  UNL1        0.0066
     16 C         144.9262  140.4927  163.1825 C.3     1  UNL1        0.0052
     17 C         143.8635  139.8141  163.9949 C.3     1  UNL1        0.0288
     18 C         140.6540  138.2284  164.6081 C.3     1  UNL1        0.1044
     19 C         139.2584  137.9175  165.0616 C.3     1  UNL1        0.0900
     20 N         138.2693  139.0277  165.2594 N.3     1  UNL1       -0.2968
     21 H         137.3427  138.6252  165.1181 H       1  UNL1        0.1233
     22 O         139.2694  146.4280  161.5198 O.2     1  UNL1       -0.2726
     23 C         139.1968  145.1976  162.3746 C.2     1  UNL1        0.2497
     24 C         139.7613  145.2154  163.7643 C.3     1  UNL1        0.1129
     25 C         139.6887  143.9850  164.6192 C.2     1  UNL1       -0.0198
     26 C         139.0516  142.7367  164.0844 C.2     1  UNL1       -0.0134
     27 C         138.4871  142.7189  162.6948 C.2     1  UNL1        0.0468
     28 N         138.5597  143.9493  161.8399 N.am    1  UNL1       -0.1836
     29 C         137.8500  141.4707  162.1601 C.3     1  UNL1        0.0443
     30 C         137.7774  140.2403  163.0150 C.3     1  UNL1        0.0221
     31 C         138.3419  140.2581  164.4046 C.3     1  UNL1        0.0588
     32 C         138.9790  141.5063  164.9393 C.3     1  UNL1        0.0427
@<TRIPOS>BOND
     1    22    23    2
     2    23    24    1
     3    24    25    1
     4    25    26    2
     5    26    27    1
     6    27    28    2
     7    27    29    1
     8    29    30    1
     9    30    31    1
    10    31    20    1
    11    20    19    1
    12    19    18    1
    13    18     1    1
    14     1     3    1
    15     3     4   ar
    16     4     5   ar
    17     5     6   ar
    18     6     7   ar
    19     7     8   ar
    20     8     9   ar
    21     9    10    1
    22     9    11   ar
    23    11    12   ar
    24    12    13   ar
    25     5    14    1
    26    14    15    1
    27    15    16    1
    28    16    17    1
    29    31    32    1
    30    28    23    1
    31    13     3   ar
    32    32    26    1
    33    17     4    1
    34    13     7   ar
    35    20    21    1
    36     1     2    1
@<TRIPOS>MOLECULE
*****
 32 36 0 0 0
SMALL
GASTEIGER

@<TRIPOS>ATOM
      1 N         140.9350  139.4525  161.7846 N.pl3   1  UNL1       -0.3317
      2 H         140.5566  139.2615  160.8960 H       1  UNL1        0.1468
      3 C         140.1637  140.2857  162.7649 C.ar    1  UNL1        0.0432
      4 C         139.4902  139.6343  163.9363 C.ar    1  UNL1        0.0045
      5 C         138.7190  140.4674  164.9166 C.ar    1  UNL1        0.0561
      6 N         138.6212  141.9521  164.7254 N.ar    1  UNL1       -0.2499
      7 C         139.2946  142.6034  163.5541 C.ar    1  UNL1        0.0829
      8 C         139.1969  144.0880  163.3630 C.ar    1  UNL1        0.0305
      9 C         139.8703  144.7394  162.1916 C.ar    1  UNL1        0.0592
     10 CL        139.7725  146.2239  162.0005 Cl      1  UNL1       -0.0822
     11 C         140.6416  143.9062  161.2113 C.ar    1  UNL1        0.0115
     12 C         140.7394  142.4217  161.4024 C.ar    1  UNL1        0.0036
     13 C         140.0659  141.7702  162.5738 C.ar    1  UNL1        0.0305
     14 C         138.0455  139.8161  166.0879 C.3     1  UNL1        0.0455
     15 C         138.1433  138.3316  166.2790 C.3     1  UNL1        0.0066
     16 C         138.9146  137.4984  165.2987 C.3     1  UNL1        0.0052
     17 C         139.5881  138.1497  164.1273 C.3     1  UNL1        0.0288
     18 C         142.2829  138.9105  162.1582 C.3     1  UNL1        0.1044
     19 C         143.1653  139.6771  163.0982 C.3     1  UNL1        0.0900
     20 N         143.2134  139.3077  164.5511 N.3     1  UNL1       -0.2968
     21 H         142.7947  138.3813  164.6334 H       1  UNL1        0.1233
     22 O         139.2331  143.0528  170.8663 O.2     1  UNL1       -0.2726
     23 C         139.9067  142.1812  169.8481 C.2     1  UNL1        0.2497
     24 C         139.9677  140.6967  170.0544 C.3     1  UNL1        0.1129
     25 C         140.6413  139.8251  169.0363 C.2     1  UNL1       -0.0198
     26 C         141.2538  140.4380  167.8118 C.2     1  UNL1       -0.0134
     27 C         141.1927  141.9225  167.6056 C.2     1  UNL1        0.0468
     28 N         140.5192  142.7941  168.6237 N.am    1  UNL1       -0.1836
     29 C         141.8052  142.5354  166.3812 C.3     1  UNL1        0.0443
     30 C         142.4788  141.6638  165.3630 C.3     1  UNL1        0.0221
     31 C         142.5398  140.1793  165.5693 C.3     1  UNL1        0.0588
     32 C         141.9274  139.5664  166.7937 C.3     1  UNL1        0.0427
@<TRIPOS>BOND
     1    22    23    2
     2    23    24    1
     3    24    25    1
     4    25    26    2
     5    26    27    1
     6    27    28    2
     7    27    29    1
     8    29    30    1
     9    30    31    1
    10    31    20    1
    11    20    19    1
    12    19    18    1
    13    18     1    1
    14     1     3    1
    15     3     4   ar
    16     4     5   ar
    17     5     6   ar
    18     6     7   ar
    19     7     8   ar
    20     8     9   ar
    21     9    10    1
    22     9    11   ar
    23    11    12   ar
    24    12    13   ar
    25     5    14    1
    26    14    15    1
    27    15    16    1
    28    16    17    1
    29    31    32    1
    30    28    23    1
    31    13     3   ar
    32    32    26    1
    33    17     4    1
    34    13     7   ar
    35    20    21    1
    36     1     2    1
@<TRIPOS>MOLECULE
*****
 32 36 0 0 0
SMALL
GASTEIGER

@<TRIPOS>ATOM
      1 N         138.4991  139.9099  163.1457 N.pl3   1  UNL1       -0.3317
      2 H         137.6379  139.5090  163.4043 H       1  UNL1        0.1468
      3 C         139.3398  140.6085  164.1729 C.ar    1  UNL1        0.0432
      4 C         139.0149  142.0161  164.5766 C.ar    1  UNL1        0.0045
      5 C         139.8556  142.7148  165.6038 C.ar    1  UNL1        0.0561
      6 N         141.0213  142.0057  166.2272 N.ar    1  UNL1       -0.2499
      7 C         141.3461  140.5981  165.8235 C.ar    1  UNL1        0.0829
      8 C         142.5117  139.8890  166.4469 C.ar    1  UNL1        0.0305
      9 C         142.8366  138.4814  166.0432 C.ar    1  UNL1        0.0592
     10 CL        144.0021  137.7724  166.6666 Cl      1  UNL1       -0.0822
     11 C         141.9958  137.7828  165.0160 C.ar    1  UNL1        0.0115
     12 C         140.8303  138.4918  164.3925 C.ar    1  UNL1        0.0036
     13 C         140.5054  139.8995  164.7963 C.ar    1  UNL1        0.0305
     14 C         139.5308  144.1224  166.0076 C.3     1  UNL1        0.0455
     15 C         138.3653  144.8314  165.3841 C.3     1  UNL1        0.0066
     16 C         137.5245  144.1328  164.3569 C.3     1  UNL1        0.0052
     17 C         137.8494  142.7252  163.9532 C.3     1  UNL1        0.0288
     18 C         138.9705  139.8221  161.7243 C.3     1  UNL1        0.1044
     19 C         138.8016  140.9947  160.8043 C.3     1  UNL1        0.0900
     20 N         139.9989  141.7896  160.3748 N.3     1  UNL1       -0.2968
     21 H         140.6067  141.1518  159.8608 H       1  UNL1        0.1233
     22 O         145.4174  144.4551  166.1440 O.2     1  UNL1       -0.2726
     23 C         144.5616  143.7741  165.1175 C.2     1  UNL1        0.2497
     24 C         144.8452  142.3538  164.7273 C.3     1  UNL1        0.1129
     25 C         143.9894  141.6728  163.7008 C.2     1  UNL1       -0.0198
     26 C         142.8499  142.4122  163.0643 C.2     1  UNL1       -0.0134
     27 C         142.5663  143.8325  163.4545 C.2     1  UNL1        0.0468
     28 N         143.4222  144.5135  164.4810 N.am    1  UNL1       -0.1836
     29 C         141.4269  144.5718  162.8180 C.3     1  UNL1        0.0443
     30 C         140.5711  143.8909  161.7915 C.3     1  UNL1        0.0221
     31 C         140.8547  142.4706  161.4013 C.3     1  UNL1        0.0588
     32 C         141.9941  141.7312  162.0378 C.3     1  UNL1        0.0427
@<TRIPOS>BOND
     1    22    23    2
     2    23    24    1
     3    24    25    1
     4    25    26    2
     5    26    27    1
     6    27    28    2
     7    27    29    1
     8    29    30    1
     9    30    31    1
    10    31    20    1
    11    20    19    1
    12    19    18    1
    13    18     1    1
    14     1     3    1
    15     3     4   ar
    16     4     5   ar
    17     5     6   ar
    18     6     7   ar
    19     7     8   ar
    20     8     9   ar
    21     9    10    1
    22     9    11   ar
    23    11    12   ar
    24    12    13   ar
    25     5    14    1
    26    14    15    1
    27    15    16    1
    28    16    17    1
    29    31    32    1
    30    28    23    1
    31    13     3   ar
    32    32    26    1
    33    17     4    1
    34    13     7   ar
    35    20    21    1
    36     1     2    1
