@<TRIPOS>MOLECULE
*****
 25 27 0 0 0
SMALL
GASTEIGER

@<TRIPOS>ATOM
      1 N         141.8621  140.7616  169.4161 N.am    1  UNL1       -0.2752
      2 C         141.8010  140.5935  167.9268 C.3     1  UNL1        0.1206
      3 C         140.4999  140.2513  167.2634 C.3     1  UNL1        0.1141
      4 C         139.1989  139.9091  166.6000 C.3     1  UNL1        0.0463
      5 C         139.1378  139.7410  165.1107 C.3     1  UNL1        0.0746
      6 N         140.3778  139.9151  164.2848 N.3     1  UNL1       -0.2722
      7 C         141.6789  140.2573  164.9482 C.3     1  UNL1        0.0746
      8 C         141.7399  140.4254  166.4375 C.3     1  UNL1        0.0463
      9 O         139.2599  140.0772  168.0892 O.3     1  UNL1       -0.3501
     10 C         139.3210  140.2453  169.5786 C.3     1  UNL1        0.1909
     11 C         138.0810  140.0711  170.4045 C.3     1  UNL1        0.0420
     12 C         140.6220  140.5874  170.2420 C.2     1  UNL1        0.2529
     13 O         140.6831  140.7555  171.7313 O.2     1  UNL1       -0.2722
     14 C         143.8485  142.3999  169.7627 C.3     1  UNL1        0.0233
     15 C         143.1631  141.1038  170.0796 C.3     1  UNL1        0.0936
     16 C         140.3167  139.7470  162.7955 C.3     1  UNL1        0.0769
     17 C         139.9244  140.9043  161.9256 C.3     1  UNL1        0.0460
     18 C         139.6133  142.2354  162.5433 C.ar    1  UNL1        0.0089
     19 C         140.7163  143.2189  162.8006 C.ar    1  UNL1        0.0276
     20 C         140.4052  144.5499  163.4184 C.ar    1  UNL1        0.1400
     21 F         141.5081  145.5334  163.6757 F       1  UNL1       -0.2042
     22 C         138.9912  144.8973  163.7788 C.ar    1  UNL1        0.0319
     23 C         137.8883  143.9138  163.5215 C.ar    1  UNL1        0.0316
     24 C         138.1994  142.5828  162.9038 C.ar    1  UNL1        0.1363
     25 F         137.0964  141.5992  162.6465 F       1  UNL1       -0.2045
@<TRIPOS>BOND
     1    14    15    1
     2    15     1    1
     3     1     2    1
     4     2     3    1
     5     3     4    1
     6     4     5    1
     7     5     6    1
     8     6    16    1
     9    16    17    1
    10    17    18    1
    11    18    19   ar
    12    19    20   ar
    13    20    21    1
    14    20    22   ar
    15    22    23   ar
    16    23    24   ar
    17    24    25    1
    18     6     7    1
    19     7     8    1
    20     3     9    1
    21     9    10    1
    22    10    11    1
    23    10    12    1
    24    12    13    2
    25    12     1   am
    26     8     3    1
    27    24    18   ar
@<TRIPOS>MOLECULE
*****
 25 27 0 0 0
SMALL
GASTEIGER

@<TRIPOS>ATOM
      1 N         140.6213  141.1176  168.7331 N.am    1  UNL1       -0.2752
      2 C         141.6526  141.5104  167.7172 C.3     1  UNL1        0.1206
      3 C         141.5608  140.9873  166.3143 C.3     1  UNL1        0.1141
      4 C         141.4689  140.4643  164.9115 C.3     1  UNL1        0.0463
      5 C         142.5002  140.8571  163.8956 C.3     1  UNL1        0.0746
      6 N         143.6234  141.7729  164.2825 N.3     1  UNL1       -0.2722
      7 C         143.7153  142.2960  165.6853 C.3     1  UNL1        0.0746
      8 C         142.6840  141.9032  166.7012 C.3     1  UNL1        0.0463
      9 O         140.4376  140.0715  165.9274 O.3     1  UNL1       -0.3501
     10 C         139.4063  139.6787  166.9434 C.3     1  UNL1        0.1909
     11 C         138.2831  138.7629  166.5565 C.3     1  UNL1        0.0420
     12 C         139.4982  140.2018  168.3462 C.2     1  UNL1        0.2529
     13 O         138.4668  139.8090  169.3622 O.2     1  UNL1       -0.2722
     14 C         139.8866  142.8213  170.5518 C.3     1  UNL1        0.0233
     15 C         140.7132  141.6407  170.1360 C.3     1  UNL1        0.0936
     16 C         144.6547  142.1657  163.2665 C.3     1  UNL1        0.0769
     17 C         144.4543  143.3953  162.4312 C.3     1  UNL1        0.0460
     18 C         143.1182  144.0767  162.4079 C.ar    1  UNL1        0.0089
     19 C         142.1287  143.7507  161.3287 C.ar    1  UNL1        0.0276
     20 C         140.7927  144.4321  161.3055 C.ar    1  UNL1        0.1400
     21 F         139.8031  144.1062  160.2263 F       1  UNL1       -0.2042
     22 C         140.4461  145.4395  162.3615 C.ar    1  UNL1        0.0319
     23 C         141.4355  145.7655  163.4407 C.ar    1  UNL1        0.0316
     24 C         142.7716  145.0841  163.4639 C.ar    1  UNL1        0.1363
     25 F         143.7611  145.4100  164.5431 F       1  UNL1       -0.2045
@<TRIPOS>BOND
     1    14    15    1
     2    15     1    1
     3     1     2    1
     4     2     3    1
     5     3     4    1
     6     4     5    1
     7     5     6    1
     8     6    16    1
     9    16    17    1
    10    17    18    1
    11    18    19   ar
    12    19    20   ar
    13    20    21    1
    14    20    22   ar
    15    22    23   ar
    16    23    24   ar
    17    24    25    1
    18     6     7    1
    19     7     8    1
    20     3     9    1
    21     9    10    1
    22    10    11    1
    23    10    12    1
    24    12    13    2
    25    12     1   am
    26     8     3    1
    27    24    18   ar
@<TRIPOS>MOLECULE
*****
 25 27 0 0 0
SMALL
GASTEIGER

@<TRIPOS>ATOM
      1 N         140.8704  140.1623  168.1586 N.am    1  UNL1       -0.2752
      2 C         140.0026  140.4776  166.9764 C.3     1  UNL1        0.1206
      3 C         140.4181  140.0400  165.6031 C.3     1  UNL1        0.1141
      4 C         140.8336  139.6025  164.2298 C.3     1  UNL1        0.0463
      5 C         139.9658  139.9178  163.0476 C.3     1  UNL1        0.0746
      6 N         138.6826  140.6706  163.2387 N.3     1  UNL1       -0.2722
      7 C         138.2671  141.1081  164.6120 C.3     1  UNL1        0.0746
      8 C         139.1348  140.7928  165.7942 C.3     1  UNL1        0.0463
      9 O         141.7013  139.2872  165.4120 O.3     1  UNL1       -0.3501
     10 C         142.5691  138.9719  166.5942 C.3     1  UNL1        0.1909
     11 C         143.8524  138.2191  166.4031 C.3     1  UNL1        0.0420
     12 C         142.1536  139.4095  167.9675 C.2     1  UNL1        0.2529
     13 O         143.0214  139.0942  169.1497 O.2     1  UNL1       -0.2722
     14 C         139.0187  140.4917  169.9510 C.3     1  UNL1        0.0233
     15 C         140.4549  140.5998  169.5319 C.3     1  UNL1        0.0936
     16 C         137.8148  140.9859  162.0565 C.3     1  UNL1        0.0769
     17 C         138.0502  142.2388  161.2662 C.3     1  UNL1        0.0460
     18 C         139.0727  143.2351  161.7268 C.ar    1  UNL1        0.0089
     19 C         140.4824  143.1513  161.2214 C.ar    1  UNL1        0.0276
     20 C         141.5048  144.1476  161.6821 C.ar    1  UNL1        0.1400
     21 F         142.9146  144.0638  161.1766 F       1  UNL1       -0.2042
     22 C         141.1173  145.2277  162.6481 C.ar    1  UNL1        0.0319
     23 C         139.7076  145.3115  163.1535 C.ar    1  UNL1        0.0316
     24 C         138.6852  144.3152  162.6929 C.ar    1  UNL1        0.1363
     25 F         137.2754  144.3990  163.1983 F       1  UNL1       -0.2045
@<TRIPOS>BOND
     1    14    15    1
     2    15     1    1
     3     1     2    1
     4     2     3    1
     5     3     4    1
     6     4     5    1
     7     5     6    1
     8     6    16    1
     9    16    17    1
    10    17    18    1
    11    18    19   ar
    12    19    20   ar
    13    20    21    1
    14    20    22   ar
    15    22    23   ar
    16    23    24   ar
    17    24    25    1
    18     6     7    1
    19     7     8    1
    20     3     9    1
    21     9    10    1
    22    10    11    1
    23    10    12    1
    24    12    13    2
    25    12     1   am
    26     8     3    1
    27    24    18   ar
@<TRIPOS>MOLECULE
*****
 25 27 0 0 0
SMALL
GASTEIGER

@<TRIPOS>ATOM
      1 N         141.1010  144.0347  161.4440 N.am    1  UNL1       -0.2752
      2 C         140.4907  143.4103  162.6636 C.3     1  UNL1        0.1206
      3 C         141.0382  142.1207  163.1997 C.3     1  UNL1        0.1141
      4 C         141.5857  140.8312  163.7358 C.3     1  UNL1        0.0463
      5 C         140.9754  140.2068  164.9554 C.3     1  UNL1        0.0746
      6 N         139.8177  140.8718  165.6390 N.3     1  UNL1       -0.2722
      7 C         139.2702  142.1613  165.1030 C.3     1  UNL1        0.0746
      8 C         139.8805  142.7858  163.8833 C.3     1  UNL1        0.0463
      9 O         142.1960  141.4556  162.5161 O.3     1  UNL1       -0.3501
     10 C         142.8062  142.0801  161.2964 C.3     1  UNL1        0.1909
     11 C         143.9640  141.4151  160.6128 C.3     1  UNL1        0.0420
     12 C         142.2588  143.3696  160.7604 C.2     1  UNL1        0.2529
     13 O         142.8690  143.9941  159.5406 O.2     1  UNL1       -0.2722
     14 C         139.7690  146.2361  161.8039 C.3     1  UNL1        0.0233
     15 C         140.5535  145.3243  160.9078 C.3     1  UNL1        0.0936
     16 C         139.2074  140.2473  166.8588 C.3     1  UNL1        0.0769
     17 C         140.0778  139.8541  168.0153 C.3     1  UNL1        0.0460
     18 C         140.9418  140.8803  168.6867 C.ar    1  UNL1        0.0089
     19 C         140.3788  142.2284  169.0263 C.ar    1  UNL1        0.0276
     20 C         141.2427  143.2545  169.6977 C.ar    1  UNL1        0.1400
     21 F         140.6797  144.6028  170.0373 F       1  UNL1       -0.2042
     22 C         142.6696  142.9324  170.0295 C.ar    1  UNL1        0.0319
     23 C         143.2326  141.5842  169.6898 C.ar    1  UNL1        0.0316
     24 C         142.3687  140.5581  169.0185 C.ar    1  UNL1        0.1363
     25 F         142.9317  139.2099  168.6788 F       1  UNL1       -0.2045
@<TRIPOS>BOND
     1    14    15    1
     2    15     1    1
     3     1     2    1
     4     2     3    1
     5     3     4    1
     6     4     5    1
     7     5     6    1
     8     6    16    1
     9    16    17    1
    10    17    18    1
    11    18    19   ar
    12    19    20   ar
    13    20    21    1
    14    20    22   ar
    15    22    23   ar
    16    23    24   ar
    17    24    25    1
    18     6     7    1
    19     7     8    1
    20     3     9    1
    21     9    10    1
    22    10    11    1
    23    10    12    1
    24    12    13    2
    25    12     1   am
    26     8     3    1
    27    24    18   ar
@<TRIPOS>MOLECULE
*****
 25 27 0 0 0
SMALL
GASTEIGER

@<TRIPOS>ATOM
      1 N         139.4983  139.7670  167.0613 N.am    1  UNL1       -0.2752
      2 C         140.5066  140.2103  166.0432 C.3     1  UNL1        0.1206
      3 C         141.5847  141.1797  166.4281 C.3     1  UNL1        0.1141
      4 C         142.6628  142.1490  166.8130 C.3     1  UNL1        0.0463
      5 C         143.6711  142.5924  165.7948 C.3     1  UNL1        0.0746
      6 N         143.6014  142.0664  164.3918 N.3     1  UNL1       -0.2722
      7 C         142.5233  141.0971  164.0069 C.3     1  UNL1        0.0746
      8 C         141.5150  140.6537  165.0250 C.3     1  UNL1        0.0463
      9 O         141.6544  141.7057  167.8311 O.3     1  UNL1       -0.3501
     10 C         140.6460  141.2623  168.8493 C.3     1  UNL1        0.1909
     11 C         140.7157  141.7883  170.2523 C.3     1  UNL1        0.0420
     12 C         139.5680  140.2930  168.4644 C.2     1  UNL1        0.2529
     13 O         138.5596  139.8496  169.4825 O.2     1  UNL1       -0.2722
     14 C         138.5886  137.9312  165.4636 C.3     1  UNL1        0.0233
     15 C         138.4202  138.7976  166.6765 C.3     1  UNL1        0.0936
     16 C         144.6098  142.5098  163.3736 C.3     1  UNL1        0.0769
     17 C         144.3717  143.7579  162.5764 C.3     1  UNL1        0.0460
     18 C         142.9710  144.1823  162.2478 C.ar    1  UNL1        0.0089
     19 C         142.3114  143.6862  160.9954 C.ar    1  UNL1        0.0276
     20 C         140.9107  144.1106  160.6668 C.ar    1  UNL1        0.1400
     21 F         140.2510  143.6145  159.4143 F       1  UNL1       -0.2042
     22 C         140.1696  145.0310  161.5908 C.ar    1  UNL1        0.0319
     23 C         140.8293  145.5270  162.8432 C.ar    1  UNL1        0.0316
     24 C         142.2299  145.1027  163.1718 C.ar    1  UNL1        0.1363
     25 F         142.8897  145.5988  164.4243 F       1  UNL1       -0.2045
@<TRIPOS>BOND
     1    14    15    1
     2    15     1    1
     3     1     2    1
     4     2     3    1
     5     3     4    1
     6     4     5    1
     7     5     6    1
     8     6    16    1
     9    16    17    1
    10    17    18    1
    11    18    19   ar
    12    19    20   ar
    13    20    21    1
    14    20    22   ar
    15    22    23   ar
    16    23    24   ar
    17    24    25    1
    18     6     7    1
    19     7     8    1
    20     3     9    1
    21     9    10    1
    22    10    11    1
    23    10    12    1
    24    12    13    2
    25    12     1   am
    26     8     3    1
    27    24    18   ar
@<TRIPOS>MOLECULE
*****
 25 27 0 0 0
SMALL
GASTEIGER

@<TRIPOS>ATOM
      1 N         142.0568  143.1153  161.0291 N.am    1  UNL1       -0.2752
      2 C         141.6358  142.2700  162.1945 C.3     1  UNL1        0.1206
      3 C         140.5832  142.7674  163.1404 C.3     1  UNL1        0.1141
      4 C         139.5306  143.2648  164.0862 C.3     1  UNL1        0.0463
      5 C         139.1096  142.4195  165.2516 C.3     1  UNL1        0.0746
      6 N         139.7412  141.0768  165.4711 N.3     1  UNL1       -0.2722
      7 C         140.7937  140.5793  164.5253 C.3     1  UNL1        0.0746
      8 C         141.2147  141.4246  163.3599 C.3     1  UNL1        0.0463
      9 O         139.9517  144.1101  162.9208 O.3     1  UNL1       -0.3501
     10 C         140.3727  144.9555  161.7554 C.3     1  UNL1        0.1909
     11 C         139.7412  146.2982  161.5358 C.3     1  UNL1        0.0420
     12 C         141.4253  144.4580  160.8095 C.2     1  UNL1        0.2529
     13 O         141.8464  145.3033  159.6441 O.2     1  UNL1       -0.2722
     14 C         143.5842  141.1976  160.1690 C.3     1  UNL1        0.0233
     15 C         143.1094  142.6179  160.0832 C.3     1  UNL1        0.0936
     16 C         139.3201  140.2314  166.6366 C.3     1  UNL1        0.0769
     17 C         140.3305  139.8120  167.6627 C.3     1  UNL1        0.0460
     18 C         141.0909  140.8495  168.4344 C.ar    1  UNL1        0.0089
     19 C         140.4418  142.1591  168.7714 C.ar    1  UNL1        0.0276
     20 C         141.2022  143.1965  169.5430 C.ar    1  UNL1        0.1400
     21 F         140.5530  144.5061  169.8800 F       1  UNL1       -0.2042
     22 C         142.6118  142.9244  169.9777 C.ar    1  UNL1        0.0319
     23 C         143.2610  141.6148  169.6407 C.ar    1  UNL1        0.0316
     24 C         142.5006  140.5774  168.8691 C.ar    1  UNL1        0.1363
     25 F         143.1497  139.2678  168.5321 F       1  UNL1       -0.2045
@<TRIPOS>BOND
     1    14    15    1
     2    15     1    1
     3     1     2    1
     4     2     3    1
     5     3     4    1
     6     4     5    1
     7     5     6    1
     8     6    16    1
     9    16    17    1
    10    17    18    1
    11    18    19   ar
    12    19    20   ar
    13    20    21    1
    14    20    22   ar
    15    22    23   ar
    16    23    24   ar
    17    24    25    1
    18     6     7    1
    19     7     8    1
    20     3     9    1
    21     9    10    1
    22    10    11    1
    23    10    12    1
    24    12    13    2
    25    12     1   am
    26     8     3    1
    27    24    18   ar
@<TRIPOS>MOLECULE
*****
 25 27 0 0 0
SMALL
GASTEIGER

@<TRIPOS>ATOM
      1 N         139.0431  142.3670  162.7411 N.am    1  UNL1       -0.2752
      2 C         139.7033  141.4338  163.7123 C.3     1  UNL1        0.1206
      3 C         140.9608  141.8504  164.4161 C.3     1  UNL1        0.1141
      4 C         142.2182  142.2669  165.1199 C.3     1  UNL1        0.0463
      5 C         142.8785  141.3337  166.0910 C.3     1  UNL1        0.0746
      6 N         142.2813  139.9840  166.3584 N.3     1  UNL1       -0.2722
      7 C         141.0239  139.5674  165.6546 C.3     1  UNL1        0.0746
      8 C         140.3636  140.5006  164.6835 C.3     1  UNL1        0.0463
      9 O         141.5580  143.2002  164.1487 O.3     1  UNL1       -0.3501
     10 C         140.8976  144.1334  163.1775 C.3     1  UNL1        0.1909
     11 C         141.4948  145.4832  162.9102 C.3     1  UNL1        0.0420
     12 C         139.6402  143.7168  162.4738 C.2     1  UNL1        0.2529
     13 O         138.9799  144.6500  161.5026 O.2     1  UNL1       -0.2722
     14 C         137.6937  140.5925  161.4067 C.3     1  UNL1        0.0233
     15 C         137.7856  141.9504  162.0373 C.3     1  UNL1        0.0936
     16 C         142.9416  139.0507  167.3296 C.3     1  UNL1        0.0769
     17 C         142.6802  139.1904  168.8000 C.3     1  UNL1        0.0460
     18 C         142.1203  140.4714  169.3438 C.ar    1  UNL1        0.0089
     19 C         143.0419  141.5179  169.8965 C.ar    1  UNL1        0.0276
     20 C         142.4819  142.7987  170.4403 C.ar    1  UNL1        0.1400
     21 F         143.4036  143.8453  170.9930 F       1  UNL1       -0.2042
     22 C         141.0004  143.0331  170.4315 C.ar    1  UNL1        0.0319
     23 C         140.0788  141.9866  169.8788 C.ar    1  UNL1        0.0316
     24 C         140.6387  140.7058  169.3350 C.ar    1  UNL1        0.1363
     25 F         139.7171  139.6592  168.7823 F       1  UNL1       -0.2045
@<TRIPOS>BOND
     1    14    15    1
     2    15     1    1
     3     1     2    1
     4     2     3    1
     5     3     4    1
     6     4     5    1
     7     5     6    1
     8     6    16    1
     9    16    17    1
    10    17    18    1
    11    18    19   ar
    12    19    20   ar
    13    20    21    1
    14    20    22   ar
    15    22    23   ar
    16    23    24   ar
    17    24    25    1
    18     6     7    1
    19     7     8    1
    20     3     9    1
    21     9    10    1
    22    10    11    1
    23    10    12    1
    24    12    13    2
    25    12     1   am
    26     8     3    1
    27    24    18   ar
@<TRIPOS>MOLECULE
*****
 25 27 0 0 0
SMALL
GASTEIGER

@<TRIPOS>ATOM
      1 N         140.4095  144.8519  161.7415 N.am    1  UNL1       -0.2752
      2 C         141.3974  144.0173  162.5013 C.3     1  UNL1        0.1206
      3 C         142.6050  143.4641  161.8042 C.3     1  UNL1        0.1141
      4 C         143.8124  142.9110  161.1071 C.3     1  UNL1        0.0463
      5 C         144.8004  142.0764  161.8668 C.3     1  UNL1        0.0746
      6 N         144.5808  141.7949  163.3237 N.3     1  UNL1       -0.2722
      7 C         143.3734  142.3480  164.0209 C.3     1  UNL1        0.0746
      8 C         142.3854  143.1826  163.2611 C.3     1  UNL1        0.0463
      9 O         142.8245  143.7456  160.3473 O.3     1  UNL1       -0.3501
     10 C         141.8365  144.5803  159.5875 C.3     1  UNL1        0.1909
     11 C         142.0560  144.8618  158.1306 C.3     1  UNL1        0.0420
     12 C         140.6290  145.1334  160.2846 C.2     1  UNL1        0.2529
     13 O         139.6410  145.9681  159.5248 O.2     1  UNL1       -0.2722
     14 C         138.6482  144.7084  163.6461 C.3     1  UNL1        0.0233
     15 C         139.2019  145.4051  162.4386 C.3     1  UNL1        0.0936
     16 C         145.5689  140.9602  164.0835 C.3     1  UNL1        0.0769
     17 C         145.2835  139.5106  164.3429 C.3     1  UNL1        0.0460
     18 C         143.9358  138.9407  164.0126 C.ar    1  UNL1        0.0089
     19 C         143.6051  138.5687  162.5977 C.ar    1  UNL1        0.0276
     20 C         142.2575  137.9989  162.2675 C.ar    1  UNL1        0.1400
     21 F         141.9267  137.6268  160.8524 F       1  UNL1       -0.2042
     22 C         141.2405  137.8010  163.3522 C.ar    1  UNL1        0.0319
     23 C         141.5712  138.1730  164.7672 C.ar    1  UNL1        0.0316
     24 C         142.9189  138.7429  165.0974 C.ar    1  UNL1        0.1363
     25 F         143.2497  139.1149  166.5124 F       1  UNL1       -0.2045
@<TRIPOS>BOND
     1    14    15    1
     2    15     1    1
     3     1     2    1
     4     2     3    1
     5     3     4    1
     6     4     5    1
     7     5     6    1
     8     6    16    1
     9    16    17    1
    10    17    18    1
    11    18    19   ar
    12    19    20   ar
    13    20    21    1
    14    20    22   ar
    15    22    23   ar
    16    23    24   ar
    17    24    25    1
    18     6     7    1
    19     7     8    1
    20     3     9    1
    21     9    10    1
    22    10    11    1
    23    10    12    1
    24    12    13    2
    25    12     1   am
    26     8     3    1
    27    24    18   ar
@<TRIPOS>MOLECULE
*****
 25 27 0 0 0
SMALL
GASTEIGER

@<TRIPOS>ATOM
      1 N         141.0826  144.9750  160.9403 N.am    1  UNL1       -0.2752
      2 C         142.1896  144.0610  161.3753 C.3     1  UNL1        0.1206
      3 C         142.1928  143.4952  162.7645 C.3     1  UNL1        0.1141
      4 C         142.1960  142.9295  164.1537 C.3     1  UNL1        0.0463
      5 C         143.3030  142.0155  164.5887 C.3     1  UNL1        0.0746
      6 N         144.4067  141.6672  163.6345 N.3     1  UNL1       -0.2722
      7 C         144.4035  142.2329  162.2453 C.3     1  UNL1        0.0746
      8 C         143.2965  143.1469  161.8103 C.3     1  UNL1        0.0463
      9 O         141.0891  143.8435  163.7188 O.3     1  UNL1       -0.3501
     10 C         139.9822  144.7576  163.2837 C.3     1  UNL1        0.1909
     11 C         138.8785  145.1059  164.2379 C.3     1  UNL1        0.0420
     12 C         139.9789  145.3233  161.8945 C.2     1  UNL1        0.2529
     13 O         138.8720  146.2374  161.4595 O.2     1  UNL1       -0.2722
     14 C         141.7700  144.8062  158.4405 C.3     1  UNL1        0.0233
     15 C         141.0794  145.5408  159.5511 C.3     1  UNL1        0.0936
     16 C         145.5136  140.7531  164.0695 C.3     1  UNL1        0.0769
     17 C         145.2096  139.3334  164.4463 C.3     1  UNL1        0.0460
     18 C         143.8864  138.7278  164.0824 C.ar    1  UNL1        0.0089
     19 C         143.5393  138.4942  162.6419 C.ar    1  UNL1        0.0276
     20 C         142.2161  137.8886  162.2780 C.ar    1  UNL1        0.1400
     21 F         141.8690  137.6549  160.8375 F       1  UNL1       -0.2042
     22 C         141.2401  137.5165  163.3546 C.ar    1  UNL1        0.0319
     23 C         141.5872  137.7501  164.7950 C.ar    1  UNL1        0.0316
     24 C         142.9104  138.3558  165.1589 C.ar    1  UNL1        0.1363
     25 F         143.2575  138.5894  166.5994 F       1  UNL1       -0.2045
@<TRIPOS>BOND
     1    14    15    1
     2    15     1    1
     3     1     2    1
     4     2     3    1
     5     3     4    1
     6     4     5    1
     7     5     6    1
     8     6    16    1
     9    16    17    1
    10    17    18    1
    11    18    19   ar
    12    19    20   ar
    13    20    21    1
    14    20    22   ar
    15    22    23   ar
    16    23    24   ar
    17    24    25    1
    18     6     7    1
    19     7     8    1
    20     3     9    1
    21     9    10    1
    22    10    11    1
    23    10    12    1
    24    12    13    2
    25    12     1   am
    26     8     3    1
    27    24    18   ar
