@<TRIPOS>MOLECULE
*****
 25 28 0 0 0
SMALL
GASTEIGER

@<TRIPOS>ATOM
      1 O         139.6373  143.0633  164.8984 O.2     1  UNL1       -0.2520
      2 C         139.1128  142.7178  163.5362 C.2     1  UNL1        0.3111
      3 N         138.8305  143.6882  162.4278 N.am    1  UNL1       -0.2606
      4 C         138.3217  142.9113  161.2498 C.3     1  UNL1        0.1169
      5 C         138.2897  141.4607  161.6302 C.3     1  UNL1        0.1212
      6 N         138.7786  141.3410  163.0432 N.am    1  UNL1       -0.2413
      7 C         138.9101  140.0682  163.8258 C.ar    1  UNL1        0.0584
      8 C         139.8157  138.9771  163.3366 C.ar    1  UNL1        0.0446
      9 C         139.9472  137.7043  164.1193 C.ar    1  UNL1        0.1422
     10 F         140.8528  136.6131  163.6301 F       1  UNL1       -0.2041
     11 C         139.1731  137.5226  165.3912 C.ar    1  UNL1        0.0411
     12 C         138.2675  138.6137  165.8804 C.ar    1  UNL1        0.0611
     13 CL        137.4933  138.4319  167.1524 Cl      1  UNL1       -0.0821
     14 C         138.1360  139.8865  165.0978 C.ar    1  UNL1        0.0265
     15 C         139.0231  145.1746  162.4870 C.3     1  UNL1        0.1123
     16 C         140.4026  145.7564  162.3960 C.3     1  UNL1        0.0944
     17 N         141.6001  144.8914  162.6565 N.3     1  UNL1       -0.2637
     18 C         142.3140  144.0458  161.6439 C.3     1  UNL1        0.0992
     19 C         143.4490  143.3519  162.3370 C.ar    1  UNL1       -0.0088
     20 C         144.4923  142.3944  161.8421 C.ar    1  UNL1       -0.0032
     21 C         145.5230  141.8536  162.7882 C.ar    1  UNL1       -0.0003
     22 C         145.5105  142.2703  164.2291 C.ar    1  UNL1       -0.0003
     23 C         144.4672  143.2277  164.7239 C.ar    1  UNL1       -0.0032
     24 C         143.4365  143.7685  163.7779 C.ar    1  UNL1       -0.0088
     25 C         142.2938  144.7200  163.9753 C.3     1  UNL1        0.0992
@<TRIPOS>BOND
     1     1     2    2
     2     2     3   am
     3     3    15    1
     4    15    16    1
     5    16    17    1
     6    17    18    1
     7    18    19    1
     8    19    20   ar
     9    20    21   ar
    10    21    22   ar
    11    22    23   ar
    12    23    24   ar
    13    24    25    1
    14     3     4    1
    15     4     5    1
    16     5     6    1
    17     6     7    1
    18     7     8   ar
    19     8     9   ar
    20     9    10    1
    21     9    11   ar
    22    11    12   ar
    23    12    13    1
    24    12    14   ar
    25     6     2   am
    26    14     7   ar
    27    25    17    1
    28    24    19   ar
@<TRIPOS>MOLECULE
*****
 25 28 0 0 0
SMALL
GASTEIGER

@<TRIPOS>ATOM
      1 O         138.0127  139.3680  165.6652 O.2     1  UNL1       -0.2520
      2 C         139.3934  138.9475  165.2570 C.2     1  UNL1        0.3111
      3 N         139.7473  138.1469  164.0389 N.am    1  UNL1       -0.2606
      4 C         141.2354  137.9584  164.0242 C.3     1  UNL1        0.1169
      5 C         141.8011  138.6425  165.2333 C.3     1  UNL1        0.1212
      6 N         140.6628  139.2538  165.9952 N.am    1  UNL1       -0.2413
      7 C         140.7742  140.0344  167.2712 C.ar    1  UNL1        0.0584
      8 C         139.5821  140.1758  168.1705 C.ar    1  UNL1        0.0446
      9 C         139.6937  140.9563  169.4465 C.ar    1  UNL1        0.1422
     10 F         138.5015  141.0977  170.3459 F       1  UNL1       -0.2041
     11 C         140.9974  141.5955  169.8232 C.ar    1  UNL1        0.0411
     12 C         142.1895  141.4541  168.9239 C.ar    1  UNL1        0.0611
     13 CL        143.4932  142.0933  169.3006 Cl      1  UNL1       -0.0821
     14 C         142.0779  140.6736  167.6479 C.ar    1  UNL1        0.0265
     15 C         138.7825  137.6262  163.0151 C.3     1  UNL1        0.1123
     16 C         138.1004  138.5762  162.0759 C.3     1  UNL1        0.0944
     17 N         138.3843  140.0467  162.1592 N.3     1  UNL1       -0.2637
     18 C         139.6170  140.7366  161.6548 C.3     1  UNL1        0.0992
     19 C         139.4799  142.2018  161.9454 C.ar    1  UNL1       -0.0088
     20 C         140.3845  143.3675  161.6756 C.ar    1  UNL1       -0.0032
     21 C         139.9717  144.7488  162.0898 C.ar    1  UNL1       -0.0003
     22 C         138.6543  144.9644  162.7738 C.ar    1  UNL1       -0.0003
     23 C         137.7497  143.7987  163.0436 C.ar    1  UNL1       -0.0032
     24 C         138.1625  142.4174  162.6294 C.ar    1  UNL1       -0.0088
     25 C         137.4854  141.0855  162.7615 C.3     1  UNL1        0.0992
@<TRIPOS>BOND
     1     1     2    2
     2     2     3   am
     3     3    15    1
     4    15    16    1
     5    16    17    1
     6    17    18    1
     7    18    19    1
     8    19    20   ar
     9    20    21   ar
    10    21    22   ar
    11    22    23   ar
    12    23    24   ar
    13    24    25    1
    14     3     4    1
    15     4     5    1
    16     5     6    1
    17     6     7    1
    18     7     8   ar
    19     8     9   ar
    20     9    10    1
    21     9    11   ar
    22    11    12   ar
    23    12    13    1
    24    12    14   ar
    25     6     2   am
    26    14     7   ar
    27    25    17    1
    28    24    19   ar
@<TRIPOS>MOLECULE
*****
 25 28 0 0 0
SMALL
GASTEIGER

@<TRIPOS>ATOM
      1 O         142.8220  138.1502  164.2992 O.2     1  UNL1       -0.2520
      2 C         141.7420  138.3619  163.2800 C.2     1  UNL1        0.3111
      3 N         141.8969  138.2400  161.7930 N.am    1  UNL1       -0.2606
      4 C         140.5680  138.5354  161.1628 C.3     1  UNL1        0.1169
      5 C         139.5920  138.8400  162.2605 C.3     1  UNL1        0.1212
      6 N         140.3176  138.7327  163.5689 N.am    1  UNL1       -0.2413
      7 C         139.7230  138.9569  164.9276 C.ar    1  UNL1        0.0584
      8 C         138.5669  138.1194  165.3879 C.ar    1  UNL1        0.0446
      9 C         137.9724  138.3436  166.7467 C.ar    1  UNL1        0.1422
     10 F         136.8161  137.5061  167.2070 F       1  UNL1       -0.2041
     11 C         138.5340  139.4054  167.6452 C.ar    1  UNL1        0.0411
     12 C         139.6902  140.2429  167.1849 C.ar    1  UNL1        0.0611
     13 CL        140.2519  141.3046  168.0834 Cl      1  UNL1       -0.0821
     14 C         140.2847  140.0186  165.8261 C.ar    1  UNL1        0.0265
     15 C         143.1589  137.8850  161.0641 C.3     1  UNL1        0.1123
     16 C         144.2889  138.8691  160.9980 C.3     1  UNL1        0.0944
     17 N         144.1801  140.1851  161.7095 N.3     1  UNL1       -0.2637
     18 C         143.4513  141.3983  161.2128 C.3     1  UNL1        0.0992
     19 C         143.6017  142.4820  162.2390 C.ar    1  UNL1       -0.0088
     20 C         143.0965  143.8934  162.2897 C.ar    1  UNL1       -0.0032
     21 C         143.4132  144.7613  163.4714 C.ar    1  UNL1       -0.0003
     22 C         144.2350  144.2177  164.6024 C.ar    1  UNL1       -0.0003
     23 C         144.7402  142.8063  164.5517 C.ar    1  UNL1       -0.0032
     24 C         144.4235  141.9384  163.3700 C.ar    1  UNL1       -0.0088
     25 C         144.7810  140.5189  163.0427 C.3     1  UNL1        0.0992
@<TRIPOS>BOND
     1     1     2    2
     2     2     3   am
     3     3    15    1
     4    15    16    1
     5    16    17    1
     6    17    18    1
     7    18    19    1
     8    19    20   ar
     9    20    21   ar
    10    21    22   ar
    11    22    23   ar
    12    23    24   ar
    13    24    25    1
    14     3     4    1
    15     4     5    1
    16     5     6    1
    17     6     7    1
    18     7     8   ar
    19     8     9   ar
    20     9    10    1
    21     9    11   ar
    22    11    12   ar
    23    12    13    1
    24    12    14   ar
    25     6     2   am
    26    14     7   ar
    27    25    17    1
    28    24    19   ar
@<TRIPOS>MOLECULE
*****
 25 28 0 0 0
SMALL
GASTEIGER

@<TRIPOS>ATOM
      1 O         138.4390  139.3733  166.3489 O.2     1  UNL1       -0.2520
      2 C         139.7629  138.9958  165.7533 C.2     1  UNL1        0.3111
      3 N         139.9705  138.2067  164.4946 N.am    1  UNL1       -0.2606
      4 C         141.4476  138.0643  164.2751 C.3     1  UNL1        0.1169
      5 C         142.1528  138.7654  165.3982 C.3     1  UNL1        0.1212
      6 N         141.1116  139.3411  166.3118 N.am    1  UNL1       -0.2413
      7 C         141.3732  140.1245  167.5638 C.ar    1  UNL1        0.0584
      8 C         142.2836  139.5699  168.6191 C.ar    1  UNL1        0.0446
      9 C         142.5451  140.3534  169.8712 C.ar    1  UNL1        0.1422
     10 F         143.4555  139.7988  170.9265 F       1  UNL1       -0.2041
     11 C         141.8963  141.6914  170.0680 C.ar    1  UNL1        0.0411
     12 C         140.9859  142.2460  169.0127 C.ar    1  UNL1        0.0611
     13 CL        140.3371  143.5840  169.2095 Cl      1  UNL1       -0.0821
     14 C         140.7244  141.4625  167.7606 C.ar    1  UNL1        0.0265
     15 C         138.8908  137.6566  163.6106 C.3     1  UNL1        0.1123
     16 C         138.3234  138.4989  162.5068 C.3     1  UNL1        0.0944
     17 N         138.5355  139.9839  162.5118 N.3     1  UNL1       -0.2637
     18 C         137.5963  141.0068  163.0789 C.3     1  UNL1        0.0992
     19 C         138.2044  142.3617  162.8682 C.ar    1  UNL1       -0.0088
     20 C         137.7306  143.7404  163.2212 C.ar    1  UNL1       -0.0032
     21 C         138.5717  144.9336  162.8768 C.ar    1  UNL1       -0.0003
     22 C         139.8868  144.7481  162.1795 C.ar    1  UNL1       -0.0003
     23 C         140.3606  143.3694  161.8265 C.ar    1  UNL1       -0.0032
     24 C         139.5194  142.1762  162.1708 C.ar    1  UNL1       -0.0088
     25 C         139.7240  140.7066  161.9506 C.3     1  UNL1        0.0992
@<TRIPOS>BOND
     1     1     2    2
     2     2     3   am
     3     3    15    1
     4    15    16    1
     5    16    17    1
     6    17    18    1
     7    18    19    1
     8    19    20   ar
     9    20    21   ar
    10    21    22   ar
    11    22    23   ar
    12    23    24   ar
    13    24    25    1
    14     3     4    1
    15     4     5    1
    16     5     6    1
    17     6     7    1
    18     7     8   ar
    19     8     9   ar
    20     9    10    1
    21     9    11   ar
    22    11    12   ar
    23    12    13    1
    24    12    14   ar
    25     6     2   am
    26    14     7   ar
    27    25    17    1
    28    24    19   ar
@<TRIPOS>MOLECULE
*****
 25 28 0 0 0
SMALL
GASTEIGER

@<TRIPOS>ATOM
      1 O         141.9745  140.7877  162.9104 O.2     1  UNL1       -0.2520
      2 C         142.9790  141.7643  163.4463 C.2     1  UNL1        0.3111
      3 N         144.3761  141.4402  163.8857 N.am    1  UNL1       -0.2606
      4 C         145.0235  142.7121  164.3478 C.3     1  UNL1        0.1169
      5 C         144.0263  143.8221  164.1939 C.3     1  UNL1        0.1212
      6 N         142.7628  143.2363  163.6368 N.am    1  UNL1       -0.2413
      7 C         141.5042  143.9903  163.3249 C.ar    1  UNL1        0.0584
      8 C         141.3721  144.7234  162.0230 C.ar    1  UNL1        0.0446
      9 C         140.1134  145.4773  161.7111 C.ar    1  UNL1        0.1422
     10 F         139.9813  146.2104  160.4091 F       1  UNL1       -0.2041
     11 C         138.9868  145.4981  162.7013 C.ar    1  UNL1        0.0411
     12 C         139.1189  144.7650  164.0032 C.ar    1  UNL1        0.0611
     13 CL        137.9923  144.7859  164.9934 Cl      1  UNL1       -0.0821
     14 C         140.3776  144.0111  164.3150 C.ar    1  UNL1        0.0265
     15 C         145.0140  140.0827  163.8665 C.3     1  UNL1        0.1123
     16 C         144.5535  139.0240  164.8241 C.3     1  UNL1        0.0944
     17 N         143.1088  138.9480  165.2201 N.3     1  UNL1       -0.2637
     18 C         142.4524  139.7338  166.3163 C.3     1  UNL1        0.0992
     19 C         141.0047  139.3443  166.3631 C.ar    1  UNL1       -0.0088
     20 C         139.8727  139.7917  167.2397 C.ar    1  UNL1       -0.0032
     21 C         138.5023  139.2125  167.0490 C.ar    1  UNL1       -0.0003
     22 C         138.2638  138.1859  165.9817 C.ar    1  UNL1       -0.0003
     23 C         139.3958  137.7384  165.1051 C.ar    1  UNL1       -0.0032
     24 C         140.7662  138.3176  165.2958 C.ar    1  UNL1       -0.0088
     25 C         142.0666  138.0727  164.5894 C.3     1  UNL1        0.0992
@<TRIPOS>BOND
     1     1     2    2
     2     2     3   am
     3     3    15    1
     4    15    16    1
     5    16    17    1
     6    17    18    1
     7    18    19    1
     8    19    20   ar
     9    20    21   ar
    10    21    22   ar
    11    22    23   ar
    12    23    24   ar
    13    24    25    1
    14     3     4    1
    15     4     5    1
    16     5     6    1
    17     6     7    1
    18     7     8   ar
    19     8     9   ar
    20     9    10    1
    21     9    11   ar
    22    11    12   ar
    23    12    13    1
    24    12    14   ar
    25     6     2   am
    26    14     7   ar
    27    25    17    1
    28    24    19   ar
@<TRIPOS>MOLECULE
*****
 25 28 0 0 0
SMALL
GASTEIGER

@<TRIPOS>ATOM
      1 O         143.4648  142.7904  165.6977 O.2     1  UNL1       -0.2520
      2 C         143.7800  141.3603  165.3728 C.2     1  UNL1        0.3111
      3 N         144.7580  140.8859  164.3392 N.am    1  UNL1       -0.2606
      4 C         144.7550  139.3859  164.3521 C.3     1  UNL1        0.1169
      5 C         143.7751  138.9333  165.3938 C.3     1  UNL1        0.1212
      6 N         143.1726  140.1536  166.0247 N.am    1  UNL1       -0.2413
      7 C         142.1433  140.1650  167.1157 C.ar    1  UNL1        0.0584
      8 C         140.7219  139.7966  166.8098 C.ar    1  UNL1        0.0446
      9 C         139.6927  139.8080  167.9009 C.ar    1  UNL1        0.1422
     10 F         138.2711  139.4396  167.5950 F       1  UNL1       -0.2041
     11 C         140.0849  140.1879  169.2980 C.ar    1  UNL1        0.0411
     12 C         141.5064  140.5564  169.6039 C.ar    1  UNL1        0.0611
     13 CL        141.8987  140.9363  171.0010 Cl      1  UNL1       -0.0821
     14 C         142.5356  140.5449  168.5128 C.ar    1  UNL1        0.0265
     15 C         145.5924  141.7582  163.4488 C.3     1  UNL1        0.1123
     16 C         144.9873  142.3757  162.2231 C.3     1  UNL1        0.0944
     17 N         143.5787  142.8900  162.2598 N.3     1  UNL1       -0.2637
     18 C         142.3371  142.0764  162.0439 C.3     1  UNL1        0.0992
     19 C         141.1554  142.9916  162.1694 C.ar    1  UNL1       -0.0088
     20 C         139.6799  142.7473  162.0545 C.ar    1  UNL1       -0.0032
     21 C         138.7157  143.8823  162.2329 C.ar    1  UNL1       -0.0003
     22 C         139.2268  145.2616  162.5264 C.ar    1  UNL1       -0.0003
     23 C         140.7023  145.5060  162.6414 C.ar    1  UNL1       -0.0032
     24 C         141.6666  144.3710  162.4629 C.ar    1  UNL1       -0.0088
     25 C         143.1642  144.3081  162.5187 C.3     1  UNL1        0.0992
@<TRIPOS>BOND
     1     1     2    2
     2     2     3   am
     3     3    15    1
     4    15    16    1
     5    16    17    1
     6    17    18    1
     7    18    19    1
     8    19    20   ar
     9    20    21   ar
    10    21    22   ar
    11    22    23   ar
    12    23    24   ar
    13    24    25    1
    14     3     4    1
    15     4     5    1
    16     5     6    1
    17     6     7    1
    18     7     8   ar
    19     8     9   ar
    20     9    10    1
    21     9    11   ar
    22    11    12   ar
    23    12    13    1
    24    12    14   ar
    25     6     2   am
    26    14     7   ar
    27    25    17    1
    28    24    19   ar
@<TRIPOS>MOLECULE
*****
 25 28 0 0 0
SMALL
GASTEIGER

@<TRIPOS>ATOM
      1 O         143.9914  143.0015  165.8613 O.2     1  UNL1       -0.2520
      2 C         143.8459  141.6650  165.1960 C.2     1  UNL1        0.3111
      3 N         144.3169  141.3108  163.8166 N.am    1  UNL1       -0.2606
      4 C         143.9659  139.8749  163.5614 C.3     1  UNL1        0.1169
      5 C         143.2779  139.3418  164.7831 C.3     1  UNL1        0.1212
      6 N         143.2037  140.4481  165.7933 N.am    1  UNL1       -0.2413
      7 C         142.5944  140.3540  167.1607 C.ar    1  UNL1        0.0584
      8 C         142.9215  139.1905  168.0491 C.ar    1  UNL1        0.0446
      9 C         142.3121  139.0964  169.4165 C.ar    1  UNL1        0.1422
     10 F         142.6391  137.9329  170.3050 F       1  UNL1       -0.2041
     11 C         141.3757  140.1659  169.8955 C.ar    1  UNL1        0.0411
     12 C         141.0487  141.3294  169.0071 C.ar    1  UNL1        0.0611
     13 CL        140.1123  142.3989  169.4861 Cl      1  UNL1       -0.0821
     14 C         141.6580  141.4235  167.6397 C.ar    1  UNL1        0.0265
     15 C         145.0162  142.2309  162.8603 C.3     1  UNL1        0.1123
     16 C         144.2729  143.3795  162.2455 C.3     1  UNL1        0.0944
     17 N         142.7840  143.4777  162.3992 N.3     1  UNL1       -0.2637
     18 C         142.0502  144.4508  163.2736 C.3     1  UNL1        0.0992
     19 C         140.5802  144.1946  163.1202 C.ar    1  UNL1       -0.0088
     20 C         139.3781  144.8453  163.7379 C.ar    1  UNL1       -0.0032
     21 C         138.0014  144.3646  163.3864 C.ar    1  UNL1       -0.0003
     22 C         137.8268  143.2332  162.4172 C.ar    1  UNL1       -0.0003
     23 C         139.0288  142.5824  161.7995 C.ar    1  UNL1       -0.0032
     24 C         140.4055  143.0631  162.1511 C.ar    1  UNL1       -0.0088
     25 C         141.7676  142.6201  161.7054 C.3     1  UNL1        0.0992
@<TRIPOS>BOND
     1     1     2    2
     2     2     3   am
     3     3    15    1
     4    15    16    1
     5    16    17    1
     6    17    18    1
     7    18    19    1
     8    19    20   ar
     9    20    21   ar
    10    21    22   ar
    11    22    23   ar
    12    23    24   ar
    13    24    25    1
    14     3     4    1
    15     4     5    1
    16     5     6    1
    17     6     7    1
    18     7     8   ar
    19     8     9   ar
    20     9    10    1
    21     9    11   ar
    22    11    12   ar
    23    12    13    1
    24    12    14   ar
    25     6     2   am
    26    14     7   ar
    27    25    17    1
    28    24    19   ar
@<TRIPOS>MOLECULE
*****
 25 28 0 0 0
SMALL
GASTEIGER

@<TRIPOS>ATOM
      1 O         138.3830  140.7592  163.8585 O.2     1  UNL1       -0.2520
      2 C         139.0495  140.8916  165.1958 C.2     1  UNL1        0.3111
      3 N         138.9197  139.9353  166.3441 N.am    1  UNL1       -0.2606
      4 C         139.7528  140.4563  167.4776 C.3     1  UNL1        0.1169
      5 C         140.3974  141.7346  167.0297 C.3     1  UNL1        0.1212
      6 N         139.9627  142.0036  165.6194 N.am    1  UNL1       -0.2413
      7 C         140.3698  143.1784  164.7803 C.ar    1  UNL1        0.0584
      8 C         139.3405  143.9232  163.9830 C.ar    1  UNL1        0.0446
      9 C         139.7477  145.0979  163.1439 C.ar    1  UNL1        0.1422
     10 F         138.7184  145.8428  162.3464 F       1  UNL1       -0.2041
     11 C         141.1842  145.5279  163.1021 C.ar    1  UNL1        0.0411
     12 C         142.2135  144.7831  163.8995 C.ar    1  UNL1        0.0611
     13 CL        143.6499  145.2130  163.8578 Cl      1  UNL1       -0.0821
     14 C         141.8063  143.6083  164.7386 C.ar    1  UNL1        0.0265
     15 C         138.1007  138.6787  166.3568 C.3     1  UNL1        0.1123
     16 C         138.5473  137.4844  165.5668 C.3     1  UNL1        0.0944
     17 N         139.5083  137.6552  164.4278 N.3     1  UNL1       -0.2637
     18 C         139.1442  137.7801  162.9781 C.3     1  UNL1        0.0992
     19 C         140.4130  137.9332  162.1929 C.ar    1  UNL1       -0.0088
     20 C         140.6711  138.0963  160.7243 C.ar    1  UNL1       -0.0032
     21 C         142.0775  138.2290  160.2202 C.ar    1  UNL1       -0.0003
     22 C         143.2260  138.1986  161.1846 C.ar    1  UNL1       -0.0003
     23 C         142.9679  138.0355  162.6532 C.ar    1  UNL1       -0.0032
     24 C         141.5615  137.9028  163.1573 C.ar    1  UNL1       -0.0088
     25 C         141.0023  137.7310  164.5386 C.3     1  UNL1        0.0992
@<TRIPOS>BOND
     1     1     2    2
     2     2     3   am
     3     3    15    1
     4    15    16    1
     5    16    17    1
     6    17    18    1
     7    18    19    1
     8    19    20   ar
     9    20    21   ar
    10    21    22   ar
    11    22    23   ar
    12    23    24   ar
    13    24    25    1
    14     3     4    1
    15     4     5    1
    16     5     6    1
    17     6     7    1
    18     7     8   ar
    19     8     9   ar
    20     9    10    1
    21     9    11   ar
    22    11    12   ar
    23    12    13    1
    24    12    14   ar
    25     6     2   am
    26    14     7   ar
    27    25    17    1
    28    24    19   ar
@<TRIPOS>MOLECULE
*****
 25 28 0 0 0
SMALL
GASTEIGER

@<TRIPOS>ATOM
      1 O         141.1586  137.9638  165.2790 O.2     1  UNL1       -0.2520
      2 C         140.0244  138.8050  164.7732 C.2     1  UNL1        0.3111
      3 N         139.3919  138.7087  163.4164 N.am    1  UNL1       -0.2606
      4 C         138.3001  139.7345  163.3401 C.3     1  UNL1        0.1169
      5 C         138.2579  140.4648  164.6496 C.3     1  UNL1        0.1212
      6 N         139.3235  139.8904  165.5353 N.am    1  UNL1       -0.2413
      7 C         139.6338  140.3250  166.9370 C.ar    1  UNL1        0.0584
      8 C         138.7876  139.8409  168.0770 C.ar    1  UNL1        0.0446
      9 C         139.0979  140.2756  169.4787 C.ar    1  UNL1        0.1422
     10 F         138.2517  139.7915  170.6188 F       1  UNL1       -0.2041
     11 C         140.2544  141.1943  169.7404 C.ar    1  UNL1        0.0411
     12 C         141.1006  141.6784  168.6004 C.ar    1  UNL1        0.0611
     13 CL        142.2571  142.5971  168.8620 Cl      1  UNL1       -0.0821
     14 C         140.7903  141.2437  167.1987 C.ar    1  UNL1        0.0265
     15 C         139.7826  137.7541  162.3273 C.3     1  UNL1        0.1123
     16 C         141.0524  137.9718  161.5591 C.3     1  UNL1        0.0944
     17 N         142.0404  139.0022  162.0197 N.3     1  UNL1       -0.2637
     18 C         143.2749  138.7397  162.8304 C.3     1  UNL1        0.0992
     19 C         143.9648  140.0513  163.0622 C.ar    1  UNL1       -0.0088
     20 C         145.2244  140.4071  163.7948 C.ar    1  UNL1       -0.0032
     21 C         145.6760  141.8360  163.8600 C.ar    1  UNL1       -0.0003
     22 C         144.8679  142.9091  163.1926 C.ar    1  UNL1       -0.0003
     23 C         143.6083  142.5533  162.4600 C.ar    1  UNL1       -0.0032
     24 C         143.1567  141.1244  162.3948 C.ar    1  UNL1       -0.0088
     25 C         141.9674  140.4760  161.7505 C.3     1  UNL1        0.0992
@<TRIPOS>BOND
     1     1     2    2
     2     2     3   am
     3     3    15    1
     4    15    16    1
     5    16    17    1
     6    17    18    1
     7    18    19    1
     8    19    20   ar
     9    20    21   ar
    10    21    22   ar
    11    22    23   ar
    12    23    24   ar
    13    24    25    1
    14     3     4    1
    15     4     5    1
    16     5     6    1
    17     6     7    1
    18     7     8   ar
    19     8     9   ar
    20     9    10    1
    21     9    11   ar
    22    11    12   ar
    23    12    13    1
    24    12    14   ar
    25     6     2   am
    26    14     7   ar
    27    25    17    1
    28    24    19   ar
