@<TRIPOS>MOLECULE
*****
 42 46 0 0 0
SMALL
GASTEIGER

@<TRIPOS>ATOM
      1 C         141.0885  139.6531  162.1955 C.ar    1  UNL1        0.1847
      2 N         140.2392  140.4975  161.2925 N.ar    1  UNL1       -0.2086
      3 C         140.3138  140.3147  159.8055 C.ar    1  UNL1        0.1513
      4 C         141.2378  139.2874  159.2216 C.ar    1  UNL1        0.1141
      5 C         141.5236  138.8839  157.8055 C.ar    1  UNL1        0.0206
      6 C         142.5496  137.7900  157.8334 C.ar    1  UNL1        0.0146
      7 C         142.8979  137.5175  159.2667 C.ar    1  UNL1        0.0976
      8 N         142.0871  138.4429  160.1247 N.ar    1  UNL1       -0.2244
      9 N         142.0125  138.6258  161.6116 N.ar    1  UNL1       -0.1454
     10 C         140.8646  140.2014  166.6564 C.ar    1  UNL1        0.1366
     11 C         139.9685  139.2089  165.9768 C.ar    1  UNL1        0.0385
     12 C         140.0431  139.0261  164.4899 C.ar    1  UNL1        0.0787
     13 C         141.0139  139.8359  163.6825 C.ar    1  UNL1        0.0607
     14 C         141.9100  140.8284  164.3620 C.ar    1  UNL1        0.1033
     15 N         141.8354  141.0112  165.8491 N.ar    1  UNL1       -0.2288
     16 C         141.8425  139.7825  169.0267 C.2     1  UNL1        0.4066
     17 O         142.9696  138.9982  168.4231 O.2     1  UNL1       -0.2261
     18 N         140.7900  140.3841  168.1433 N.am    1  UNL1       -0.2350
     19 H         140.0502  140.8989  168.5395 H       1  UNL1        0.1596
     20 C         141.3980  141.3010  171.0874 C.3     1  UNL1        0.2574
     21 O         141.7678  139.9653  170.5137 O.3     1  UNL1       -0.4303
     22 C         139.1469  138.0335  163.8103 C.3     1  UNL1        0.4188
     23 F         138.2507  137.0411  163.1308 F       1  UNL1       -0.1659
     24 F         140.1772  136.9629  164.0153 F       1  UNL1       -0.1659
     25 F         138.1166  139.1043  163.6054 F       1  UNL1       -0.1659
     26 N         139.4644  141.1592  158.9025 N.pl3   1  UNL1       -0.2869
     27 C         139.8901  142.5571  158.5636 C.3     1  UNL1        0.1243
     28 C         139.0408  143.4016  157.6607 C.3     1  UNL1        0.1636
     29 O         137.7659  142.8483  157.0966 O.3     1  UNL1       -0.3501
     30 C         137.3402  141.4505  157.4354 C.3     1  UNL1        0.1636
     31 C         138.1895  140.6059  158.3384 C.3     1  UNL1        0.1243
     32 C         143.1261  137.0913  156.6378 C.3     1  UNL1        0.1008
     33 N         142.8330  135.6389  156.4042 N.3     1  UNL1       -0.2664
     34 C         143.5972  134.5893  157.1555 C.3     1  UNL1        0.0917
     35 C         143.3041  133.1369  156.9219 C.3     1  UNL1        0.1128
     36 N         142.2468  132.7340  155.9371 N.3     1  UNL1       -0.1565
     37 C         141.4826  133.7837  155.1859 C.3     1  UNL1        0.1128
     38 C         141.7757  135.2361  155.4194 C.3     1  UNL1        0.0917
     39 S         141.9537  131.2816  155.7036 S.O2    1  UNL1        0.0457
     40 C         141.6606  129.8292  155.4701 C.3     1  UNL1        0.1960
     41 O         143.0500  130.9072  156.6565 O.2     1  UNL1       -0.1572
     42 O         140.8574  131.6560  154.7508 O.2     1  UNL1       -0.1572
@<TRIPOS>BOND
     1    20    21    1
     2    21    16    1
     3    16    17    2
     4    16    18   am
     5    18    10    1
     6    10    11   ar
     7    11    12   ar
     8    12    22    1
     9    22    23    1
    10    22    24    1
    11    22    25    1
    12    12    13   ar
    13    13     1    1
    14     1     2   ar
    15     2     3   ar
    16     3    26    1
    17    26    27    1
    18    27    28    1
    19    28    29    1
    20    29    30    1
    21    30    31    1
    22     3     4   ar
    23     4     5   ar
    24     5     6   ar
    25     6    32    1
    26    32    33    1
    27    33    34    1
    28    34    35    1
    29    35    36    1
    30    36    39    1
    31    39    40    1
    32    39    41    2
    33    39    42    2
    34    36    37    1
    35    37    38    1
    36     6     7   ar
    37     7     8   ar
    38     8     9   ar
    39    13    14   ar
    40    14    15   ar
    41    15    10   ar
    42     9     1   ar
    43    31    26    1
    44     8     4   ar
    45    38    33    1
    46    18    19    1
@<TRIPOS>MOLECULE
*****
 42 46 0 0 0
SMALL
GASTEIGER

@<TRIPOS>ATOM
      1 C         142.2543  141.0331  161.9460 C.ar    1  UNL1        0.1847
      2 N         141.9286  142.3004  161.2128 N.ar    1  UNL1       -0.2086
      3 C         141.9966  142.3389  159.7148 C.ar    1  UNL1        0.1513
      4 C         142.3904  141.1100  158.9501 C.ar    1  UNL1        0.1141
      5 C         142.5433  140.8480  157.4811 C.ar    1  UNL1        0.0206
      6 C         142.9635  139.4187  157.3065 C.ar    1  UNL1        0.0146
      7 C         143.0702  138.7974  158.6676 C.ar    1  UNL1        0.0976
      8 N         142.7160  139.8427  159.6834 N.ar    1  UNL1       -0.2244
      9 N         142.6480  139.8042  161.1814 N.ar    1  UNL1       -0.1454
     10 C         142.0503  140.9176  166.4400 C.ar    1  UNL1        0.1366
     11 C         143.3467  141.2359  165.7560 C.ar    1  UNL1        0.0385
     12 C         143.4147  141.2744  164.2580 C.ar    1  UNL1        0.0787
     13 C         142.1862  140.9946  163.4441 C.ar    1  UNL1        0.0607
     14 C         140.8898  140.6763  164.1280 C.ar    1  UNL1        0.1033
     15 N         140.8218  140.6378  165.6260 N.ar    1  UNL1       -0.2288
     16 C         142.6187  139.7471  168.6887 C.2     1  UNL1        0.4066
     17 O         143.3231  138.6538  167.9416 O.2     1  UNL1       -0.2261
     18 N         141.9823  140.8791  167.9379 N.am    1  UNL1       -0.2350
     19 H         141.5200  141.5967  168.4283 H       1  UNL1        0.1596
     20 C         142.0426  140.8989  170.9452 C.3     1  UNL1        0.2574
     21 O         142.5507  139.7087  170.1867 O.3     1  UNL1       -0.4303
     22 C         144.7112  141.5927  163.5740 C.3     1  UNL1        0.4188
     23 F         146.0078  141.9110  162.8901 F       1  UNL1       -0.1659
     24 F         144.3408  143.0459  163.5480 F       1  UNL1       -0.1659
     25 F         145.0817  140.1394  163.6001 F       1  UNL1       -0.1659
     26 N         141.6709  143.6064  158.9816 N.pl3   1  UNL1       -0.2869
     27 C         142.7073  144.2594  158.1158 C.3     1  UNL1        0.1243
     28 C         142.3817  145.5268  157.3826 C.3     1  UNL1        0.1636
     29 O         141.0197  146.1412  157.5151 O.3     1  UNL1       -0.3501
     30 C         139.9834  145.4881  158.3809 C.3     1  UNL1        0.1636
     31 C         140.3090  144.2207  159.1141 C.3     1  UNL1        0.1243
     32 C         143.2301  138.7314  156.0002 C.3     1  UNL1        0.1008
     33 N         142.8596  137.2888  155.8224 N.3     1  UNL1       -0.2664
     34 C         141.4259  136.9035  155.6084 C.3     1  UNL1        0.0917
     35 C         141.0554  135.4609  155.4306 C.3     1  UNL1        0.1128
     36 N         142.1187  134.4035  155.4669 N.3     1  UNL1       -0.1565
     37 C         143.5526  134.7889  155.6809 C.3     1  UNL1        0.1128
     38 C         143.9230  136.2315  155.8587 C.3     1  UNL1        0.0917
     39 S         141.7483  132.9609  155.2891 S.O2    1  UNL1        0.0457
     40 C         141.3778  131.5183  155.1113 C.3     1  UNL1        0.1960
     41 O         141.2321  133.2630  153.9134 O.2     1  UNL1       -0.1572
     42 O         142.2645  132.6588  156.6647 O.2     1  UNL1       -0.1572
@<TRIPOS>BOND
     1    20    21    1
     2    21    16    1
     3    16    17    2
     4    16    18   am
     5    18    10    1
     6    10    11   ar
     7    11    12   ar
     8    12    22    1
     9    22    23    1
    10    22    24    1
    11    22    25    1
    12    12    13   ar
    13    13     1    1
    14     1     2   ar
    15     2     3   ar
    16     3    26    1
    17    26    27    1
    18    27    28    1
    19    28    29    1
    20    29    30    1
    21    30    31    1
    22     3     4   ar
    23     4     5   ar
    24     5     6   ar
    25     6    32    1
    26    32    33    1
    27    33    34    1
    28    34    35    1
    29    35    36    1
    30    36    39    1
    31    39    40    1
    32    39    41    2
    33    39    42    2
    34    36    37    1
    35    37    38    1
    36     6     7   ar
    37     7     8   ar
    38     8     9   ar
    39    13    14   ar
    40    14    15   ar
    41    15    10   ar
    42     9     1   ar
    43    31    26    1
    44     8     4   ar
    45    38    33    1
    46    18    19    1
@<TRIPOS>MOLECULE
*****
 42 46 0 0 0
SMALL
GASTEIGER

@<TRIPOS>ATOM
      1 C         139.4642  142.4760  158.2060 C.ar    1  UNL1        0.1847
      2 N         140.0805  141.2569  157.5865 N.ar    1  UNL1       -0.2086
      3 C         140.1289  139.9687  158.3537 C.ar    1  UNL1        0.1513
      4 C         139.5611  139.8998  159.7403 C.ar    1  UNL1        0.1141
      5 C         139.4664  138.7780  160.7315 C.ar    1  UNL1        0.0206
      6 C         138.7915  139.3039  161.9636 C.ar    1  UNL1        0.0146
      7 C         138.4692  140.7507  161.7339 C.ar    1  UNL1        0.0976
      8 N         138.9449  141.1191  160.3598 N.ar    1  UNL1       -0.2244
      9 N         138.8964  142.4071  159.5927 N.ar    1  UNL1       -0.1454
     10 C         139.3190  146.3404  155.9048 C.ar    1  UNL1        0.1366
     11 C         140.2197  146.2110  157.0973 C.ar    1  UNL1        0.0385
     12 C         140.2681  144.9228  157.8643 C.ar    1  UNL1        0.0787
     13 C         139.4158  143.7641  157.4389 C.ar    1  UNL1        0.0607
     14 C         138.5152  143.8935  156.2465 C.ar    1  UNL1        0.1033
     15 N         138.4667  145.1817  155.4794 N.ar    1  UNL1       -0.2288
     16 C         138.8166  148.8878  155.8145 C.2     1  UNL1        0.4066
     17 O         138.4110  148.8590  157.2583 O.2     1  UNL1       -0.2261
     18 N         139.2706  147.6285  155.1377 N.am    1  UNL1       -0.2350
     19 H         139.5368  147.6474  154.1901 H       1  UNL1        0.1596
     20 C         138.8267  151.4856  155.7764 C.3     1  UNL1        0.2574
     21 O         138.7682  150.1759  155.0474 O.3     1  UNL1       -0.4303
     22 C         141.1688  144.7935  159.0568 C.3     1  UNL1        0.4188
     23 F         142.0696  144.6641  160.2493 F       1  UNL1       -0.1659
     24 F         140.0992  145.3815  159.9286 F       1  UNL1       -0.1659
     25 F         142.2384  144.2054  158.1850 F       1  UNL1       -0.1659
     26 N         140.7452  138.7495  157.7341 N.pl3   1  UNL1       -0.2869
     27 C         139.9830  137.9621  156.7099 C.3     1  UNL1        0.1243
     28 C         140.5992  136.7429  156.0903 C.3     1  UNL1        0.1636
     29 O         141.9775  136.3112  156.4949 O.3     1  UNL1       -0.3501
     30 C         142.7397  137.0987  157.5191 C.3     1  UNL1        0.1636
     31 C         142.1235  138.3179  158.1387 C.3     1  UNL1        0.1243
     32 C         138.4917  138.5204  163.2071 C.3     1  UNL1        0.1008
     33 N         139.0859  138.9394  164.5191 N.3     1  UNL1       -0.2664
     34 C         140.5399  139.2980  164.6036 C.3     1  UNL1        0.0917
     35 C         141.1342  139.7170  165.9155 C.3     1  UNL1        0.1128
     36 N         140.2743  139.7775  167.1432 N.3     1  UNL1       -0.1565
     37 C         138.8202  139.4189  167.0587 C.3     1  UNL1        0.1128
     38 C         138.2260  138.9999  165.7467 C.3     1  UNL1        0.0917
     39 S         140.8686  140.1965  168.4551 S.O2    1  UNL1        0.0457
     40 C         141.4628  140.6155  169.7671 C.3     1  UNL1        0.1960
     41 O         139.6248  139.7457  169.1623 O.2     1  UNL1       -0.1572
     42 O         142.1122  140.6472  167.7479 O.2     1  UNL1       -0.1572
@<TRIPOS>BOND
     1    20    21    1
     2    21    16    1
     3    16    17    2
     4    16    18   am
     5    18    10    1
     6    10    11   ar
     7    11    12   ar
     8    12    22    1
     9    22    23    1
    10    22    24    1
    11    22    25    1
    12    12    13   ar
    13    13     1    1
    14     1     2   ar
    15     2     3   ar
    16     3    26    1
    17    26    27    1
    18    27    28    1
    19    28    29    1
    20    29    30    1
    21    30    31    1
    22     3     4   ar
    23     4     5   ar
    24     5     6   ar
    25     6    32    1
    26    32    33    1
    27    33    34    1
    28    34    35    1
    29    35    36    1
    30    36    39    1
    31    39    40    1
    32    39    41    2
    33    39    42    2
    34    36    37    1
    35    37    38    1
    36     6     7   ar
    37     7     8   ar
    38     8     9   ar
    39    13    14   ar
    40    14    15   ar
    41    15    10   ar
    42     9     1   ar
    43    31    26    1
    44     8     4   ar
    45    38    33    1
    46    18    19    1
@<TRIPOS>MOLECULE
*****
 42 46 0 0 0
SMALL
GASTEIGER

@<TRIPOS>ATOM
      1 C         140.2109  138.9710  160.1496 C.ar    1  UNL1        0.1847
      2 N         139.9810  140.4453  160.3027 N.ar    1  UNL1       -0.2086
      3 C         139.5572  141.0047  161.6284 C.ar    1  UNL1        0.1513
      4 C         139.3632  140.0896  162.8010 C.ar    1  UNL1        0.1141
      5 C         138.9529  140.3499  164.2201 C.ar    1  UNL1        0.0206
      6 C         138.9292  139.0364  164.9441 C.ar    1  UNL1        0.0146
      7 C         139.3249  137.9643  163.9725 C.ar    1  UNL1        0.0976
      8 N         139.5931  138.6153  162.6479 N.ar    1  UNL1       -0.2244
      9 N         140.0170  138.0560  161.3222 N.ar    1  UNL1       -0.1454
     10 C         141.4827  137.2929  156.1726 C.ar    1  UNL1        0.1366
     11 C         142.5060  137.5564  157.2373 C.ar    1  UNL1        0.0385
     12 C         142.0820  138.1158  158.5629 C.ar    1  UNL1        0.0787
     13 C         140.6348  138.4116  158.8239 C.ar    1  UNL1        0.0607
     14 C         139.6116  138.1481  157.7593 C.ar    1  UNL1        0.1033
     15 N         140.0355  137.5887  156.4336 N.ar    1  UNL1       -0.2288
     16 C         142.0304  135.2499  154.6639 C.2     1  UNL1        0.4066
     17 O         141.7302  134.3256  155.8065 O.2     1  UNL1       -0.2261
     18 N         141.9067  136.7335  154.8469 N.am    1  UNL1       -0.2350
     19 H         142.1037  137.3401  154.0970 H       1  UNL1        0.1596
     20 C         141.4649  133.9555  152.4833 C.3     1  UNL1        0.2574
     21 O         142.4544  134.6905  153.3382 O.3     1  UNL1       -0.4303
     22 C         143.1054  138.3793  159.6276 C.3     1  UNL1        0.4188
     23 F         144.1287  138.6427  160.6922 F       1  UNL1       -0.1659
     24 F         143.2565  139.7875  159.1338 F       1  UNL1       -0.1659
     25 F         142.9542  136.9710  160.1213 F       1  UNL1       -0.1659
     26 N         139.3272  142.4791  161.7814 N.pl3   1  UNL1       -0.2869
     27 C         138.1292  142.9771  162.5342 C.3     1  UNL1        0.1243
     28 C         137.8993  144.4515  162.6872 C.3     1  UNL1        0.1636
     29 O         138.8673  145.4277  162.0874 O.3     1  UNL1       -0.3501
     30 C         140.0653  144.9296  161.3347 C.3     1  UNL1        0.1636
     31 C         140.2953  143.4553  161.1816 C.3     1  UNL1        0.1243
     32 C         138.5725  138.8310  166.3865 C.3     1  UNL1        0.1008
     33 N         139.3022  139.5899  167.4550 N.3     1  UNL1       -0.2664
     34 C         138.6499  139.8277  168.7846 C.3     1  UNL1        0.0917
     35 C         139.3796  140.5866  169.8531 C.3     1  UNL1        0.1128
     36 N         140.7617  141.1077  169.5919 N.3     1  UNL1       -0.1565
     37 C         141.4141  140.8700  168.2622 C.3     1  UNL1        0.1128
     38 C         140.6844  140.1111  167.1938 C.3     1  UNL1        0.0917
     39 S         141.4914  141.8666  170.6604 S.O2    1  UNL1        0.0457
     40 C         142.2211  142.6255  171.7288 C.3     1  UNL1        0.1960
     41 O         140.6768  141.1712  171.7106 O.2     1  UNL1       -0.1572
     42 O         142.3060  142.5620  169.6102 O.2     1  UNL1       -0.1572
@<TRIPOS>BOND
     1    20    21    1
     2    21    16    1
     3    16    17    2
     4    16    18   am
     5    18    10    1
     6    10    11   ar
     7    11    12   ar
     8    12    22    1
     9    22    23    1
    10    22    24    1
    11    22    25    1
    12    12    13   ar
    13    13     1    1
    14     1     2   ar
    15     2     3   ar
    16     3    26    1
    17    26    27    1
    18    27    28    1
    19    28    29    1
    20    29    30    1
    21    30    31    1
    22     3     4   ar
    23     4     5   ar
    24     5     6   ar
    25     6    32    1
    26    32    33    1
    27    33    34    1
    28    34    35    1
    29    35    36    1
    30    36    39    1
    31    39    40    1
    32    39    41    2
    33    39    42    2
    34    36    37    1
    35    37    38    1
    36     6     7   ar
    37     7     8   ar
    38     8     9   ar
    39    13    14   ar
    40    14    15   ar
    41    15    10   ar
    42     9     1   ar
    43    31    26    1
    44     8     4   ar
    45    38    33    1
    46    18    19    1
@<TRIPOS>MOLECULE
*****
 42 46 0 0 0
SMALL
GASTEIGER

@<TRIPOS>ATOM
      1 C         139.4997  142.2652  156.5729 C.ar    1  UNL1        0.1847
      2 N         139.2793  141.6460  157.9212 N.ar    1  UNL1       -0.2086
      3 C         139.3662  140.1576  158.0863 C.ar    1  UNL1        0.1513
      4 C         139.6737  139.2885  156.9031 C.ar    1  UNL1        0.1141
      5 C         139.8221  137.8027  156.7607 C.ar    1  UNL1        0.0206
      6 C         140.1343  137.5036  155.3244 C.ar    1  UNL1        0.0146
      7 C         140.1788  138.8046  154.5791 C.ar    1  UNL1        0.0976
      8 N         139.8941  139.9077  155.5548 N.ar    1  UNL1       -0.2244
      9 N         139.8072  141.3961  155.3897 N.ar    1  UNL1       -0.1454
     10 C         139.2389  146.7303  156.0776 C.ar    1  UNL1        0.1366
     11 C         140.3640  146.1275  156.8656 C.ar    1  UNL1        0.0385
     12 C         140.4509  144.6391  157.0307 C.ar    1  UNL1        0.0787
     13 C         139.4127  143.7536  156.4078 C.ar    1  UNL1        0.0607
     14 C         138.2878  144.3563  155.6198 C.ar    1  UNL1        0.1033
     15 N         138.2008  145.8447  155.4547 N.ar    1  UNL1       -0.2288
     16 C         139.6376  148.8625  154.6478 C.2     1  UNL1        0.4066
     17 O         140.2101  148.0181  153.5482 O.2     1  UNL1       -0.2261
     18 N         139.1520  148.2186  155.9125 N.am    1  UNL1       -0.2350
     19 H         138.7763  148.7728  156.6342 H       1  UNL1        0.1596
     20 C         138.8748  151.1835  155.5315 C.3     1  UNL1        0.2574
     21 O         139.5507  150.3509  154.4827 O.3     1  UNL1       -0.4303
     22 C         141.5759  144.0364  157.8188 C.3     1  UNL1        0.4188
     23 F         142.7010  143.4338  158.6069 F       1  UNL1       -0.1659
     24 F         142.3687  143.8662  156.5570 F       1  UNL1       -0.1659
     25 F         140.7831  144.2067  159.0807 F       1  UNL1       -0.1659
     26 N         139.1457  139.5384  159.4347 N.pl3   1  UNL1       -0.2869
     27 C         137.8261  139.7027  160.1286 C.3     1  UNL1        0.1243
     28 C         137.6055  139.0836  161.4770 C.3     1  UNL1        0.1636
     29 O         138.7046  138.3003  162.1314 O.3     1  UNL1       -0.3501
     30 C         140.0243  138.1360  161.4375 C.3     1  UNL1        0.1636
     31 C         140.2449  138.7551  160.0891 C.3     1  UNL1        0.1243
     32 C         140.3621  136.1425  154.7365 C.3     1  UNL1        0.1008
     33 N         141.3170  135.1914  155.3949 N.3     1  UNL1       -0.2664
     34 C         141.2271  133.7214  155.1105 C.3     1  UNL1        0.0917
     35 C         142.1821  132.7703  155.7688 C.3     1  UNL1        0.1128
     36 N         143.2271  133.2892  156.7116 N.3     1  UNL1       -0.1565
     37 C         143.3170  134.7593  156.9959 C.3     1  UNL1        0.1128
     38 C         142.3620  135.7104  156.3376 C.3     1  UNL1        0.0917
     39 S         144.1820  132.3381  157.3699 S.O2    1  UNL1        0.0457
     40 C         145.1370  131.3870  158.0282 C.3     1  UNL1        0.1960
     41 O         144.6620  133.4407  158.2665 O.2     1  UNL1       -0.1572
     42 O         143.7021  131.2355  156.4732 O.2     1  UNL1       -0.1572
@<TRIPOS>BOND
     1    20    21    1
     2    21    16    1
     3    16    17    2
     4    16    18   am
     5    18    10    1
     6    10    11   ar
     7    11    12   ar
     8    12    22    1
     9    22    23    1
    10    22    24    1
    11    22    25    1
    12    12    13   ar
    13    13     1    1
    14     1     2   ar
    15     2     3   ar
    16     3    26    1
    17    26    27    1
    18    27    28    1
    19    28    29    1
    20    29    30    1
    21    30    31    1
    22     3     4   ar
    23     4     5   ar
    24     5     6   ar
    25     6    32    1
    26    32    33    1
    27    33    34    1
    28    34    35    1
    29    35    36    1
    30    36    39    1
    31    39    40    1
    32    39    41    2
    33    39    42    2
    34    36    37    1
    35    37    38    1
    36     6     7   ar
    37     7     8   ar
    38     8     9   ar
    39    13    14   ar
    40    14    15   ar
    41    15    10   ar
    42     9     1   ar
    43    31    26    1
    44     8     4   ar
    45    38    33    1
    46    18    19    1
@<TRIPOS>MOLECULE
*****
 42 46 0 0 0
SMALL
GASTEIGER

@<TRIPOS>ATOM
      1 C         143.1067  143.5285  160.7141 C.ar    1  UNL1        0.1847
      2 N         143.9593  142.7745  159.7372 N.ar    1  UNL1       -0.2086
      3 C         143.6688  142.8578  158.2679 C.ar    1  UNL1        0.1513
      4 C         142.5257  143.6950  157.7757 C.ar    1  UNL1        0.1141
      5 C         142.0019  143.9674  156.3967 C.ar    1  UNL1        0.0206
      6 C         140.8256  144.8897  156.5216 C.ar    1  UNL1        0.0146
      7 C         140.6224  145.1873  157.9776 C.ar    1  UNL1        0.0976
      8 N         141.6730  144.4489  158.7527 N.ar    1  UNL1       -0.2244
      9 N         141.9636  144.3657  160.2220 N.ar    1  UNL1       -0.1454
     10 C         143.9782  143.2787  165.1219 C.ar    1  UNL1        0.1366
     11 C         143.6142  142.0402  164.3580 C.ar    1  UNL1        0.0385
     12 C         143.3238  142.1235  162.8887 C.ar    1  UNL1        0.0787
     13 C         143.3972  143.4453  162.1835 C.ar    1  UNL1        0.0607
     14 C         143.7612  144.6837  162.9473 C.ar    1  UNL1        0.1033
     15 N         144.0517  144.6005  164.4166 N.ar    1  UNL1       -0.2288
     16 C         143.2749  142.5591  167.5172 C.2     1  UNL1        0.4066
     17 O         141.9908  142.0062  166.9741 O.2     1  UNL1       -0.2261
     18 N         144.2687  143.1954  166.5912 N.am    1  UNL1       -0.2350
     19 H         145.1115  143.5584  166.9477 H       1  UNL1        0.1596
     20 C         142.5326  142.9159  169.9813 C.3     1  UNL1        0.2574
     21 O         143.5655  142.4759  168.9865 O.3     1  UNL1       -0.4303
     22 C         142.9598  140.8849  162.1248 C.3     1  UNL1        0.4188
     23 F         142.5958  139.6463  161.3610 F       1  UNL1       -0.1659
     24 F         144.4148  140.5658  161.9488 F       1  UNL1       -0.1659
     25 F         141.5047  141.2040  162.3009 F       1  UNL1       -0.1659
     26 N         144.5215  142.1038  157.2909 N.pl3   1  UNL1       -0.2869
     27 C         143.9739  140.8921  156.5966 C.3     1  UNL1        0.1243
     28 C         144.8265  140.1381  155.6196 C.3     1  UNL1        0.1636
     29 O         146.2267  140.5957  155.3370 O.3     1  UNL1       -0.3501
     30 C         146.7743  141.8074  156.0312 C.3     1  UNL1        0.1636
     31 C         145.9217  142.5614  157.0082 C.3     1  UNL1        0.1243
     32 C         139.9979  145.4212  155.3891 C.3     1  UNL1        0.1008
     33 N         139.7882  146.8992  155.2425 N.3     1  UNL1       -0.2664
     34 C         138.9611  147.6428  156.2489 C.3     1  UNL1        0.0917
     35 C         138.7514  149.1208  156.1023 C.3     1  UNL1        0.1128
     36 N         139.3689  149.8553  154.9493 N.3     1  UNL1       -0.1565
     37 C         140.1961  149.1115  153.9430 C.3     1  UNL1        0.1128
     38 C         140.4058  147.6335  154.0895 C.3     1  UNL1        0.0917
     39 S         139.1593  151.3333  154.8027 S.O2    1  UNL1        0.0457
     40 C         138.9496  152.8113  154.6562 C.3     1  UNL1        0.1960
     41 O         139.2803  151.4978  156.2888 O.2     1  UNL1       -0.1572
     42 O         139.0383  151.1687  153.3167 O.2     1  UNL1       -0.1572
@<TRIPOS>BOND
     1    20    21    1
     2    21    16    1
     3    16    17    2
     4    16    18   am
     5    18    10    1
     6    10    11   ar
     7    11    12   ar
     8    12    22    1
     9    22    23    1
    10    22    24    1
    11    22    25    1
    12    12    13   ar
    13    13     1    1
    14     1     2   ar
    15     2     3   ar
    16     3    26    1
    17    26    27    1
    18    27    28    1
    19    28    29    1
    20    29    30    1
    21    30    31    1
    22     3     4   ar
    23     4     5   ar
    24     5     6   ar
    25     6    32    1
    26    32    33    1
    27    33    34    1
    28    34    35    1
    29    35    36    1
    30    36    39    1
    31    39    40    1
    32    39    41    2
    33    39    42    2
    34    36    37    1
    35    37    38    1
    36     6     7   ar
    37     7     8   ar
    38     8     9   ar
    39    13    14   ar
    40    14    15   ar
    41    15    10   ar
    42     9     1   ar
    43    31    26    1
    44     8     4   ar
    45    38    33    1
    46    18    19    1
@<TRIPOS>MOLECULE
*****
 42 46 0 0 0
SMALL
GASTEIGER

@<TRIPOS>ATOM
      1 C         140.9433  139.4916  162.1448 C.ar    1  UNL1        0.1847
      2 N         140.1661  140.3941  161.2331 N.ar    1  UNL1       -0.2086
      3 C         140.2943  140.2485  159.7456 C.ar    1  UNL1        0.1513
      4 C         141.1997  139.2002  159.1700 C.ar    1  UNL1        0.1141
      5 C         141.5271  138.8236  157.7555 C.ar    1  UNL1        0.0206
      6 C         142.5066  137.6882  157.7930 C.ar    1  UNL1        0.0146
      7 C         142.7846  137.3632  159.2307 C.ar    1  UNL1        0.0976
      8 N         141.9769  138.2977  160.0818 N.ar    1  UNL1       -0.2244
      9 N         141.8487  138.4434  161.5692 N.ar    1  UNL1       -0.1454
     10 C         140.5589  139.9286  166.6070 C.ar    1  UNL1        0.1366
     11 C         141.8959  140.1004  165.9490 C.ar    1  UNL1        0.0385
     12 C         142.0240  139.9548  164.4616 C.ar    1  UNL1        0.0787
     13 C         140.8151  139.6373  163.6323 C.ar    1  UNL1        0.0607
     14 C         139.4782  139.4654  164.2902 C.ar    1  UNL1        0.1033
     15 N         139.3501  139.6110  165.7777 N.ar    1  UNL1       -0.2288
     16 C         140.3287  141.4390  168.7083 C.2     1  UNL1        0.4066
     17 O         140.3547  142.6581  167.8349 O.2     1  UNL1       -0.2261
     18 N         140.4308  140.0742  168.0944 N.am    1  UNL1       -0.2350
     19 H         140.4138  139.2740  168.6677 H       1  UNL1        0.1596
     20 C         140.8295  140.5711  171.1054 C.3     1  UNL1        0.2574
     21 O         140.2006  141.5846  170.1958 O.3     1  UNL1       -0.4303
     22 C         143.3610  140.1267  163.8036 C.3     1  UNL1        0.4188
     23 F         144.6980  140.2987  163.1456 F       1  UNL1       -0.1659
     24 F         143.7093  138.7071  164.1403 F       1  UNL1       -0.1659
     25 F         143.0127  141.5463  163.4669 F       1  UNL1       -0.1659
     26 N         139.5170  141.1511  158.8339 N.pl3   1  UNL1       -0.2869
     27 C         138.2292  140.6769  158.2284 C.3     1  UNL1        0.1243
     28 C         137.4519  141.5794  157.3167 C.3     1  UNL1        0.1636
     29 O         137.9625  142.9562  157.0106 O.3     1  UNL1       -0.3501
     30 C         139.2502  143.4305  157.6161 C.3     1  UNL1        0.1636
     31 C         140.0276  142.5279  158.5278 C.3     1  UNL1        0.1243
     32 C         143.1034  136.9989  156.6019 C.3     1  UNL1        0.1008
     33 N         142.8009  135.5527  156.3428 N.3     1  UNL1       -0.2664
     34 C         143.6038  134.4847  157.0244 C.3     1  UNL1        0.0917
     35 C         143.3013  133.0386  156.7653 C.3     1  UNL1        0.1128
     36 N         142.1959  132.6604  155.8245 N.3     1  UNL1       -0.1565
     37 C         141.3930  133.7285  155.1428 C.3     1  UNL1        0.1128
     38 C         141.6955  135.1747  155.4019 C.3     1  UNL1        0.0917
     39 S         141.8935  131.2143  155.5654 S.O2    1  UNL1        0.0457
     40 C         141.5910  129.7681  155.3063 C.3     1  UNL1        0.1960
     41 O         142.8308  130.8206  156.6684 O.2     1  UNL1       -0.1572
     42 O         140.9561  131.6079  154.4625 O.2     1  UNL1       -0.1572
@<TRIPOS>BOND
     1    20    21    1
     2    21    16    1
     3    16    17    2
     4    16    18   am
     5    18    10    1
     6    10    11   ar
     7    11    12   ar
     8    12    22    1
     9    22    23    1
    10    22    24    1
    11    22    25    1
    12    12    13   ar
    13    13     1    1
    14     1     2   ar
    15     2     3   ar
    16     3    26    1
    17    26    27    1
    18    27    28    1
    19    28    29    1
    20    29    30    1
    21    30    31    1
    22     3     4   ar
    23     4     5   ar
    24     5     6   ar
    25     6    32    1
    26    32    33    1
    27    33    34    1
    28    34    35    1
    29    35    36    1
    30    36    39    1
    31    39    40    1
    32    39    41    2
    33    39    42    2
    34    36    37    1
    35    37    38    1
    36     6     7   ar
    37     7     8   ar
    38     8     9   ar
    39    13    14   ar
    40    14    15   ar
    41    15    10   ar
    42     9     1   ar
    43    31    26    1
    44     8     4   ar
    45    38    33    1
    46    18    19    1
@<TRIPOS>MOLECULE
*****
 42 46 0 0 0
SMALL
GASTEIGER

@<TRIPOS>ATOM
      1 C         143.6896  141.3166  159.1863 C.ar    1  UNL1        0.1847
      2 N         142.6189  142.2804  159.6041 N.ar    1  UNL1       -0.2086
      3 C         141.8300  142.0291  160.8549 C.ar    1  UNL1        0.1513
      4 C         142.1119  140.8139  161.6879 C.ar    1  UNL1        0.1141
      5 C         141.5026  140.3066  162.9612 C.ar    1  UNL1        0.0206
      6 C         142.1968  139.0291  163.3303 C.ar    1  UNL1        0.0146
      7 C         143.2351  138.7470  162.2852 C.ar    1  UNL1        0.0976
      8 N         143.1826  139.8501  161.2701 N.ar    1  UNL1       -0.2244
      9 N         143.9715  140.1015  160.0193 N.ar    1  UNL1       -0.1454
     10 C         146.0562  142.0704  155.4338 C.ar    1  UNL1        0.1366
     11 C         144.8405  141.1928  155.3902 C.ar    1  UNL1        0.0385
     12 C         144.0517  140.9416  156.6411 C.ar    1  UNL1        0.0787
     13 C         144.4785  141.5679  157.9355 C.ar    1  UNL1        0.0607
     14 C         145.6942  142.4455  157.9790 C.ar    1  UNL1        0.1033
     15 N         146.4831  142.6968  156.7282 N.ar    1  UNL1       -0.2288
     16 C         148.3168  142.0334  154.1539 C.2     1  UNL1        0.4066
     17 O         148.9997  141.4938  155.3755 O.2     1  UNL1       -0.2261
     18 N         146.8451  142.3217  154.1830 N.am    1  UNL1       -0.2350
     19 H         146.3969  142.6759  153.3812 H       1  UNL1        0.1596
     20 C         150.1041  143.4031  152.8580 C.3     1  UNL1        0.2574
     21 O         149.1056  142.2847  152.9030 O.3     1  UNL1       -0.4303
     22 C         142.8360  140.0640  156.5974 C.3     1  UNL1        0.4188
     23 F         141.6202  139.1864  156.5537 F       1  UNL1       -0.1659
     24 F         143.6887  138.8676  156.8996 F       1  UNL1       -0.1659
     25 F         141.9832  141.2604  156.2952 F       1  UNL1       -0.1659
     26 N         140.7592  142.9930  161.2727 N.pl3   1  UNL1       -0.2869
     27 C         139.3512  142.5128  161.4644 C.3     1  UNL1        0.1243
     28 C         138.2804  143.4766  161.8821 C.3     1  UNL1        0.1636
     29 O         138.6177  144.9205  162.1081 O.3     1  UNL1       -0.3501
     30 C         140.0258  145.4007  161.9164 C.3     1  UNL1        0.1636
     31 C         141.0966  144.4369  161.4986 C.3     1  UNL1        0.1243
     32 C         141.9041  138.1824  164.5334 C.3     1  UNL1        0.1008
     33 N         141.6952  138.8273  165.8715 N.3     1  UNL1       -0.2664
     34 C         142.8411  138.9517  166.8313 C.3     1  UNL1        0.0917
     35 C         142.6322  139.5966  168.1694 C.3     1  UNL1        0.1128
     36 N         141.2772  140.1170  168.5478 N.3     1  UNL1       -0.1565
     37 C         140.1312  139.9925  167.5879 C.3     1  UNL1        0.1128
     38 C         140.3401  139.3477  166.2498 C.3     1  UNL1        0.0917
     39 S         141.0683  140.7618  169.8859 S.O2    1  UNL1        0.0457
     40 C         140.8593  141.4067  171.2240 C.3     1  UNL1        0.1960
     41 O         140.3094  139.5538  170.3495 O.2     1  UNL1       -0.1572
     42 O         141.8271  141.9698  169.4222 O.2     1  UNL1       -0.1572
@<TRIPOS>BOND
     1    20    21    1
     2    21    16    1
     3    16    17    2
     4    16    18   am
     5    18    10    1
     6    10    11   ar
     7    11    12   ar
     8    12    22    1
     9    22    23    1
    10    22    24    1
    11    22    25    1
    12    12    13   ar
    13    13     1    1
    14     1     2   ar
    15     2     3   ar
    16     3    26    1
    17    26    27    1
    18    27    28    1
    19    28    29    1
    20    29    30    1
    21    30    31    1
    22     3     4   ar
    23     4     5   ar
    24     5     6   ar
    25     6    32    1
    26    32    33    1
    27    33    34    1
    28    34    35    1
    29    35    36    1
    30    36    39    1
    31    39    40    1
    32    39    41    2
    33    39    42    2
    34    36    37    1
    35    37    38    1
    36     6     7   ar
    37     7     8   ar
    38     8     9   ar
    39    13    14   ar
    40    14    15   ar
    41    15    10   ar
    42     9     1   ar
    43    31    26    1
    44     8     4   ar
    45    38    33    1
    46    18    19    1
@<TRIPOS>MOLECULE
*****
 42 46 0 0 0
SMALL
GASTEIGER

@<TRIPOS>ATOM
      1 C         143.2156  136.4694  156.5005 C.ar    1  UNL1        0.1847
      2 N         142.3445  137.3093  157.3868 N.ar    1  UNL1       -0.2086
      3 C         142.5255  138.7980  157.4233 C.ar    1  UNL1        0.1513
      4 C         143.5778  139.4465  156.5735 C.ar    1  UNL1        0.1141
      5 C         143.9857  140.8796  156.4009 C.ar    1  UNL1        0.0206
      6 C         145.1090  140.9253  155.4078 C.ar    1  UNL1        0.0146
      7 C         145.3953  139.5205  154.9668 C.ar    1  UNL1        0.0976
      8 N         144.4489  138.6065  155.6872 N.ar    1  UNL1       -0.2244
      9 N         144.2678  137.1180  155.6507 N.ar    1  UNL1       -0.1454
     10 C         142.6723  132.0036  156.3907 C.ar    1  UNL1        0.1366
     11 C         141.9819  132.8683  155.3779 C.ar    1  UNL1        0.0385
     12 C         142.1630  134.3569  155.4145 C.ar    1  UNL1        0.0787
     13 C         143.0345  134.9808  156.4639 C.ar    1  UNL1        0.0607
     14 C         143.7248  134.1162  157.4766 C.ar    1  UNL1        0.1033
     15 N         143.5438  132.6275  157.4401 N.ar    1  UNL1       -0.2288
     16 C         143.5801  129.6403  155.8071 C.2     1  UNL1        0.4066
     17 O         144.8500  130.2541  155.2968 O.2     1  UNL1       -0.2261
     18 N         142.4912  130.5150  156.3541 N.am    1  UNL1       -0.2350
     19 H         141.6577  130.1122  156.6890 H       1  UNL1        0.1596
     20 C         142.4568  127.4871  156.7301 C.3     1  UNL1        0.2574
     21 O         143.3989  128.1517  155.7705 O.3     1  UNL1       -0.4303
     22 C         141.4726  135.2215  154.4017 C.3     1  UNL1        0.4188
     23 F         140.7821  136.0861  153.3889 F       1  UNL1       -0.1659
     24 F         142.6007  134.9953  153.4395 F       1  UNL1       -0.1659
     25 F         140.3443  135.4476  155.3640 F       1  UNL1       -0.1659
     26 N         141.6544  139.6379  158.3097 N.pl3   1  UNL1       -0.2869
     27 C         141.9464  139.7306  159.7781 C.3     1  UNL1        0.1243
     28 C         141.0753  140.5705  160.6645 C.3     1  UNL1        0.1636
     29 O         139.9122  141.3177  160.0825 O.3     1  UNL1       -0.3501
     30 C         139.6201  141.2250  158.6141 C.3     1  UNL1        0.1636
     31 C         140.4912  140.3851  157.7277 C.3     1  UNL1        0.1243
     32 C         145.8211  142.1592  154.9383 C.3     1  UNL1        0.1008
     33 N         147.2876  142.1063  154.6273 N.3     1  UNL1       -0.2664
     34 C         148.2751  141.8101  155.7167 C.3     1  UNL1        0.0917
     35 C         149.7416  141.7572  155.4057 C.3     1  UNL1        0.1128
     36 N         150.2205  142.0006  154.0052 N.3     1  UNL1       -0.1565
     37 C         149.2329  142.2968  152.9157 C.3     1  UNL1        0.1128
     38 C         147.7664  142.3497  153.2267 C.3     1  UNL1        0.0917
     39 S         151.6869  141.9477  153.6942 S.O2    1  UNL1        0.0457
     40 C         153.1534  141.8949  153.3833 C.3     1  UNL1        0.1960
     41 O         151.3905  141.2100  152.4222 O.2     1  UNL1       -0.1572
     42 O         151.9833  142.6854  154.9662 O.2     1  UNL1       -0.1572
@<TRIPOS>BOND
     1    20    21    1
     2    21    16    1
     3    16    17    2
     4    16    18   am
     5    18    10    1
     6    10    11   ar
     7    11    12   ar
     8    12    22    1
     9    22    23    1
    10    22    24    1
    11    22    25    1
    12    12    13   ar
    13    13     1    1
    14     1     2   ar
    15     2     3   ar
    16     3    26    1
    17    26    27    1
    18    27    28    1
    19    28    29    1
    20    29    30    1
    21    30    31    1
    22     3     4   ar
    23     4     5   ar
    24     5     6   ar
    25     6    32    1
    26    32    33    1
    27    33    34    1
    28    34    35    1
    29    35    36    1
    30    36    39    1
    31    39    40    1
    32    39    41    2
    33    39    42    2
    34    36    37    1
    35    37    38    1
    36     6     7   ar
    37     7     8   ar
    38     8     9   ar
    39    13    14   ar
    40    14    15   ar
    41    15    10   ar
    42     9     1   ar
    43    31    26    1
    44     8     4   ar
    45    38    33    1
    46    18    19    1
