@<TRIPOS>MOLECULE
*****
 40 42 0 0 0
SMALL
GASTEIGER

@<TRIPOS>ATOM
      1 N         139.0357  139.5478  162.8557 N.am    1  UNL1       -0.2797
      2 C         139.6745  138.4144  162.1092 C.3     1  UNL1        0.0956
      3 C         139.1773  138.4523  160.6945 C.3     1  UNL1        0.0505
      4 C         138.2312  139.6093  160.5667 C.3     1  UNL1        0.1507
      5 C         138.1437  140.2863  161.9023 C.2     1  UNL1        0.2435
      6 O         137.3105  141.4905  162.2275 O.2     1  UNL1       -0.2731
      7 C         139.6819  140.5557  167.1935 C.3     1  UNL1        0.0577
      8 C         138.6708  139.5172  166.8074 C.3     1  UNL1        0.0177
      9 C         138.4554  139.1812  165.3615 C.3     1  UNL1        0.0212
     10 C         139.2511  139.8838  164.3016 C.3     1  UNL1        0.0771
     11 C         140.2622  140.9223  164.6878 C.3     1  UNL1        0.0431
     12 C         140.4776  141.2583  166.1337 C.3     1  UNL1        0.0194
     13 N         139.8973  140.8917  168.6394 N.3     1  UNL1       -0.2741
     14 C         139.0568  140.2365  169.6949 C.3     1  UNL1        0.0896
     15 C         142.3822  141.4453  169.1576 C.3     1  UNL1        0.0173
     16 C         140.9532  141.8829  169.0299 C.3     1  UNL1        0.0576
     17 C         140.5801  143.3119  169.2926 C.3     1  UNL1        0.0173
     18 C         141.0580  141.6249  163.6279 C.3     1  UNL1        0.1523
     19 S         142.5540  141.6757  163.7233 S.O2    1  UNL1       -0.0131
     20 O         142.4871  143.1504  163.9891 O.2     1  UNL1       -0.1731
     21 O         142.6210  140.2010  163.4576 O.2     1  UNL1       -0.1731
     22 C         144.0502  141.7265  163.8188 C.3     1  UNL1        0.1107
     23 C         143.9583  143.0218  164.5694 C.3     1  UNL1        0.0236
     24 C         144.1421  140.4311  163.0681 C.3     1  UNL1        0.0236
     25 C         145.5462  141.7773  163.9142 C.3     1  UNL1        0.0236
     26 N         137.5008  140.0175  159.3217 N.am    1  UNL1       -0.2948
     27 C         138.0706  141.0835  158.4333 C.2     1  UNL1        0.2462
     28 O         139.3707  141.7411  158.7899 O.2     1  UNL1       -0.2701
     29 H         136.6475  139.5859  159.0877 H       1  UNL1        0.1501
     30 C         137.3402  141.4916  157.1885 C.ar    1  UNL1        0.0564
     31 C         137.8499  142.6337  156.3603 C.ar    1  UNL1        0.0047
     32 C         137.1194  143.0420  155.1153 C.ar    1  UNL1        0.0033
     33 C         135.8794  142.3081  154.6985 C.ar    1  UNL1        0.0372
     34 C         135.3697  141.1661  155.5267 C.ar    1  UNL1        0.1469
     35 C         136.1001  140.7578  156.7717 C.ar    1  UNL1        0.0417
     36 O         134.1296  140.4322  155.1100 O.3     1  UNL1       -0.4045
     37 C         132.9764  140.3078  156.0611 C.3     1  UNL1        0.5753
     38 F         131.8232  140.1834  157.0123 F       1  UNL1       -0.1328
     39 F         133.3031  138.8585  156.2676 F       1  UNL1       -0.1328
     40 F         132.6497  141.7572  155.8546 F       1  UNL1       -0.1328
@<TRIPOS>BOND
     1    15    16    1
     2    16    17    1
     3    16    13    1
     4    13    14    1
     5     7    13    1
     6     7     8    1
     7     8     9    1
     8     9    10    1
     9    10     1    1
    10     1     2    1
    11     2     3    1
    12     3     4    1
    13     4    26    1
    14    26    27   am
    15    27    28    2
    16    27    30    1
    17    30    31   ar
    18    31    32   ar
    19    32    33   ar
    20    33    34   ar
    21    34    36    1
    22    36    37    1
    23    37    38    1
    24    37    39    1
    25    37    40    1
    26    34    35   ar
    27     4     5    1
    28     5     6    2
    29    10    11    1
    30    11    18    1
    31    18    19    1
    32    19    20    2
    33    19    21    2
    34    19    22    1
    35    22    23    1
    36    22    24    1
    37    22    25    1
    38    11    12    1
    39    12     7    1
    40     5     1   am
    41    35    30   ar
    42    26    29    1
@<TRIPOS>MOLECULE
*****
 40 42 0 0 0
SMALL
GASTEIGER

@<TRIPOS>ATOM
      1 N         143.0094  139.0510  163.1961 N.am    1  UNL1       -0.2797
      2 C         144.0954  139.7729  162.4550 C.3     1  UNL1        0.0956
      3 C         144.1415  139.2317  161.0569 C.3     1  UNL1        0.0505
      4 C         143.0838  138.1751  160.9338 C.3     1  UNL1        0.1507
      5 C         142.3842  138.0634  162.2560 C.2     1  UNL1        0.2435
      6 O         141.2572  137.1284  162.5809 O.2     1  UNL1       -0.2731
      7 C         141.8334  139.7285  167.4866 C.3     1  UNL1        0.0577
      8 C         143.0473  138.9094  167.1620 C.3     1  UNL1        0.0177
      9 C         143.4393  138.6835  165.7319 C.3     1  UNL1        0.0212
     10 C         142.6174  139.2768  164.6263 C.3     1  UNL1        0.0771
     11 C         141.4035  140.0960  164.9508 C.3     1  UNL1        0.0431
     12 C         141.0115  140.3218  166.3810 C.3     1  UNL1        0.0194
     13 N         141.4414  139.9544  168.9167 N.3     1  UNL1       -0.2741
     14 C         142.1738  139.2441  170.0163 C.3     1  UNL1        0.0896
     15 C         138.9790  140.3436  169.6482 C.3     1  UNL1        0.0173
     16 C         140.3170  140.8905  169.2473 C.3     1  UNL1        0.0576
     17 C         140.5305  142.3736  169.1771 C.3     1  UNL1        0.0173
     18 C         140.5815  140.6893  163.8452 C.3     1  UNL1        0.1523
     19 S         139.6650  141.8426  164.1279 S.O2    1  UNL1       -0.0131
     20 O         138.5015  140.8990  164.2050 O.2     1  UNL1       -0.1731
     21 O         140.8284  142.7861  164.0508 O.2     1  UNL1       -0.1731
     22 C         138.7484  142.9958  164.4107 C.3     1  UNL1        0.1107
     23 C         137.6292  142.2759  163.7184 C.3     1  UNL1        0.0236
     24 C         139.8675  143.7157  165.1029 C.3     1  UNL1        0.0236
     25 C         137.8317  144.1490  164.6934 C.3     1  UNL1        0.0236
     26 N         142.7793  137.3714  159.7045 N.am    1  UNL1       -0.2948
     27 C         142.2587  138.0519  158.4733 C.2     1  UNL1        0.2462
     28 O         142.0427  139.5363  158.4714 O.2     1  UNL1       -0.2701
     29 H         142.9211  136.3971  159.7057 H       1  UNL1        0.1501
     30 C         141.9542  137.2481  157.2441 C.ar    1  UNL1        0.0564
     31 C         140.8845  137.7035  156.2962 C.ar    1  UNL1        0.0047
     32 C         140.5800  136.8996  155.0669 C.ar    1  UNL1        0.0033
     33 C         141.3451  135.6405  154.7854 C.ar    1  UNL1        0.0372
     34 C         142.4148  135.1852  155.7333 C.ar    1  UNL1        0.1469
     35 C         142.7194  135.9891  156.9627 C.ar    1  UNL1        0.0417
     36 O         143.1800  133.9261  155.4519 O.3     1  UNL1       -0.4045
     37 C         143.0540  132.7499  156.3743 C.3     1  UNL1        0.5753
     38 F         142.9280  131.5738  157.2966 F       1  UNL1       -0.1328
     39 F         144.5124  132.8560  156.7086 F       1  UNL1       -0.1328
     40 F         141.5956  132.6439  156.0399 F       1  UNL1       -0.1328
@<TRIPOS>BOND
     1    15    16    1
     2    16    17    1
     3    16    13    1
     4    13    14    1
     5     7    13    1
     6     7     8    1
     7     8     9    1
     8     9    10    1
     9    10     1    1
    10     1     2    1
    11     2     3    1
    12     3     4    1
    13     4    26    1
    14    26    27   am
    15    27    28    2
    16    27    30    1
    17    30    31   ar
    18    31    32   ar
    19    32    33   ar
    20    33    34   ar
    21    34    36    1
    22    36    37    1
    23    37    38    1
    24    37    39    1
    25    37    40    1
    26    34    35   ar
    27     4     5    1
    28     5     6    2
    29    10    11    1
    30    11    18    1
    31    18    19    1
    32    19    20    2
    33    19    21    2
    34    19    22    1
    35    22    23    1
    36    22    24    1
    37    22    25    1
    38    11    12    1
    39    12     7    1
    40     5     1   am
    41    35    30   ar
    42    26    29    1
@<TRIPOS>MOLECULE
*****
 40 42 0 0 0
SMALL
GASTEIGER

@<TRIPOS>ATOM
      1 N         142.6071  139.0764  163.1907 N.am    1  UNL1       -0.2797
      2 C         141.6222  138.1850  162.4940 C.3     1  UNL1        0.0956
      3 C         142.0225  138.0899  161.0515 C.3     1  UNL1        0.0505
      4 C         143.2549  138.9226  160.8567 C.3     1  UNL1        0.1507
      5 C         143.6161  139.5323  162.1787 C.2     1  UNL1        0.2435
      6 O         144.7818  140.4388  162.4425 O.2     1  UNL1       -0.2731
      7 C         142.5456  140.1879  167.5508 C.3     1  UNL1        0.0577
      8 C         143.0715  138.8491  167.1255 C.3     1  UNL1        0.0177
      9 C         143.0920  138.4786  165.6721 C.3     1  UNL1        0.0212
     10 C         142.5866  139.4469  164.6441 C.3     1  UNL1        0.0771
     11 C         142.0607  140.7857  165.0694 C.3     1  UNL1        0.0431
     12 C         142.0401  141.1562  166.5228 C.3     1  UNL1        0.0194
     13 N         142.5250  140.5584  169.0042 N.3     1  UNL1       -0.2741
     14 C         142.3172  139.4988  170.0454 C.3     1  UNL1        0.0896
     15 C         144.0872  142.5092  169.7140 C.3     1  UNL1        0.0173
     16 C         142.7123  141.9884  169.4164 C.3     1  UNL1        0.0576
     17 C         141.5248  142.8976  169.5309 C.3     1  UNL1        0.0173
     18 C         141.5552  141.7541  164.0414 C.3     1  UNL1        0.1523
     19 S         140.2696  142.4911  164.2734 S.O2    1  UNL1       -0.0131
     20 O         139.5113  141.2010  164.1702 O.2     1  UNL1       -0.1731
     21 O         141.0278  143.7812  164.3766 O.2     1  UNL1       -0.1731
     22 C         138.9838  143.2282  164.5055 C.3     1  UNL1        0.1107
     23 C         138.2113  142.0097  164.0949 C.3     1  UNL1        0.0236
     24 C         139.7564  144.4466  164.9161 C.3     1  UNL1        0.0236
     25 C         137.6982  143.9651  164.7375 C.3     1  UNL1        0.0236
     26 N         143.9958  139.1124  159.5663 N.am    1  UNL1       -0.2948
     27 C         143.5609  140.1749  158.6009 C.2     1  UNL1        0.2462
     28 O         142.3850  141.0476  158.9258 O.2     1  UNL1       -0.2701
     29 H         144.7676  138.5396  159.3531 H       1  UNL1        0.1501
     30 C         144.3019  140.3645  157.3107 C.ar    1  UNL1        0.0564
     31 C         143.9409  139.5405  156.1104 C.ar    1  UNL1        0.0047
     32 C         144.6819  139.7302  154.8200 C.ar    1  UNL1        0.0033
     33 C         145.7839  140.7438  154.7299 C.ar    1  UNL1        0.0372
     34 C         146.1449  141.5679  155.9302 C.ar    1  UNL1        0.1469
     35 C         145.4038  141.3782  157.2206 C.ar    1  UNL1        0.0417
     36 O         147.2468  142.5815  155.8402 O.3     1  UNL1       -0.4045
     37 C         148.3729  142.3810  154.8697 C.3     1  UNL1        0.5753
     38 F         149.4989  142.1804  153.8993 F       1  UNL1       -0.1328
     39 F         148.9735  141.3507  155.7795 F       1  UNL1       -0.1328
     40 F         147.7723  143.4113  153.9599 F       1  UNL1       -0.1328
@<TRIPOS>BOND
     1    15    16    1
     2    16    17    1
     3    16    13    1
     4    13    14    1
     5     7    13    1
     6     7     8    1
     7     8     9    1
     8     9    10    1
     9    10     1    1
    10     1     2    1
    11     2     3    1
    12     3     4    1
    13     4    26    1
    14    26    27   am
    15    27    28    2
    16    27    30    1
    17    30    31   ar
    18    31    32   ar
    19    32    33   ar
    20    33    34   ar
    21    34    36    1
    22    36    37    1
    23    37    38    1
    24    37    39    1
    25    37    40    1
    26    34    35   ar
    27     4     5    1
    28     5     6    2
    29    10    11    1
    30    11    18    1
    31    18    19    1
    32    19    20    2
    33    19    21    2
    34    19    22    1
    35    22    23    1
    36    22    24    1
    37    22    25    1
    38    11    12    1
    39    12     7    1
    40     5     1   am
    41    35    30   ar
    42    26    29    1
@<TRIPOS>MOLECULE
*****
 40 42 0 0 0
SMALL
GASTEIGER

@<TRIPOS>ATOM
      1 N         139.1012  139.7538  163.1057 N.am    1  UNL1       -0.2797
      2 C         137.8054  139.8888  162.3624 C.3     1  UNL1        0.0956
      3 C         138.0210  139.3969  160.9618 C.3     1  UNL1        0.0505
      4 C         139.4500  138.9578  160.8396 C.3     1  UNL1        0.1507
      5 C         140.1177  139.1784  162.1646 C.2     1  UNL1        0.2435
      6 O         141.5503  138.8766  162.4911 O.2     1  UNL1       -0.2731
      7 C         139.8142  140.8776  167.4044 C.3     1  UNL1        0.0577
      8 C         139.3023  139.5100  167.0617 C.3     1  UNL1        0.0177
      9 C         139.0646  139.1354  165.6288 C.3     1  UNL1        0.0212
     10 C         139.3389  140.1284  164.5386 C.3     1  UNL1        0.0771
     11 C         139.8509  141.4960  164.8813 C.3     1  UNL1        0.0431
     12 C         140.0885  141.8706  166.3142 C.3     1  UNL1        0.0194
     13 N         140.0519  141.2522  168.8373 N.3     1  UNL1       -0.2741
     14 C         139.3324  140.5224  169.9325 C.3     1  UNL1        0.0896
     15 C         142.4863  142.1386  169.0325 C.3     1  UNL1        0.0173
     16 C         141.0091  142.3566  169.1749 C.3     1  UNL1        0.0576
     17 C         140.4891  143.6792  169.6550 C.3     1  UNL1        0.0173
     18 C         140.1252  142.4891  163.7910 C.3     1  UNL1        0.1523
     19 S         141.3342  143.3735  163.8688 S.O2    1  UNL1       -0.0131
     20 O         142.2151  142.1947  163.5780 O.2     1  UNL1       -0.1731
     21 O         140.4534  144.5522  164.1597 O.2     1  UNL1       -0.1731
     22 C         142.5434  144.2578  163.9467 C.3     1  UNL1        0.1107
     23 C         141.7445  145.3990  163.3904 C.3     1  UNL1        0.0236
     24 C         143.3423  143.1166  164.5029 C.3     1  UNL1        0.0236
     25 C         143.7524  145.1421  164.0245 C.3     1  UNL1        0.0236
     26 N         140.0978  138.3966  159.6085 N.am    1  UNL1       -0.2948
     27 C         141.0544  139.2366  158.8151 C.2     1  UNL1        0.2462
     28 O         141.3633  140.6376  159.2528 O.2     1  UNL1       -0.2701
     29 H         139.8950  137.4771  159.3212 H       1  UNL1        0.1501
     30 C         141.7021  138.6754  157.5841 C.ar    1  UNL1        0.0564
     31 C         141.5622  139.3882  156.2717 C.ar    1  UNL1        0.0047
     32 C         142.2100  138.8270  155.0406 C.ar    1  UNL1        0.0033
     33 C         142.9975  137.5530  155.1219 C.ar    1  UNL1        0.0372
     34 C         143.1373  136.8401  156.4342 C.ar    1  UNL1        0.1469
     35 C         142.4896  137.4013  157.6654 C.ar    1  UNL1        0.0417
     36 O         143.9248  135.5660  156.5155 O.3     1  UNL1       -0.4045
     37 C         143.2386  134.2819  156.8762 C.3     1  UNL1        0.5753
     38 F         142.5524  132.9978  157.2370 F       1  UNL1       -0.1328
     39 F         142.0638  134.6717  156.0290 F       1  UNL1       -0.1328
     40 F         144.4134  133.8921  157.7235 F       1  UNL1       -0.1328
@<TRIPOS>BOND
     1    15    16    1
     2    16    17    1
     3    16    13    1
     4    13    14    1
     5     7    13    1
     6     7     8    1
     7     8     9    1
     8     9    10    1
     9    10     1    1
    10     1     2    1
    11     2     3    1
    12     3     4    1
    13     4    26    1
    14    26    27   am
    15    27    28    2
    16    27    30    1
    17    30    31   ar
    18    31    32   ar
    19    32    33   ar
    20    33    34   ar
    21    34    36    1
    22    36    37    1
    23    37    38    1
    24    37    39    1
    25    37    40    1
    26    34    35   ar
    27     4     5    1
    28     5     6    2
    29    10    11    1
    30    11    18    1
    31    18    19    1
    32    19    20    2
    33    19    21    2
    34    19    22    1
    35    22    23    1
    36    22    24    1
    37    22    25    1
    38    11    12    1
    39    12     7    1
    40     5     1   am
    41    35    30   ar
    42    26    29    1
@<TRIPOS>MOLECULE
*****
 40 42 0 0 0
SMALL
GASTEIGER

@<TRIPOS>ATOM
      1 N         138.9434  139.3151  162.9977 N.am    1  UNL1       -0.2797
      2 C         139.4388  138.1438  162.2024 C.3     1  UNL1        0.0956
      3 C         138.9051  138.2723  160.8064 C.3     1  UNL1        0.0505
      4 C         138.0799  139.5232  160.7390 C.3     1  UNL1        0.1507
      5 C         138.1036  140.1676  162.0933 C.2     1  UNL1        0.2435
      6 O         137.4094  141.4410  162.4760 O.2     1  UNL1       -0.2731
      7 C         139.8225  140.1288  167.3354 C.3     1  UNL1        0.0577
      8 C         138.7198  139.1846  166.9579 C.3     1  UNL1        0.0177
      9 C         138.4268  138.9134  165.5120 C.3     1  UNL1        0.0212
     10 C         139.2365  139.5864  164.4436 C.3     1  UNL1        0.0771
     11 C         140.3391  140.5306  164.8211 C.3     1  UNL1        0.0431
     12 C         140.6322  140.8018  166.2670 C.3     1  UNL1        0.0194
     13 N         140.1155  140.4001  168.7812 N.3     1  UNL1       -0.2741
     14 C         138.9883  140.6062  169.7491 C.3     1  UNL1        0.0896
     15 C         142.2765  141.7693  169.2345 C.3     1  UNL1        0.0173
     16 C         141.5358  140.4652  169.2593 C.3     1  UNL1        0.0576
     17 C         142.2155  139.2261  169.7621 C.3     1  UNL1        0.0173
     18 C         141.1489  141.2036  163.7527 C.3     1  UNL1        0.1523
     19 S         142.6471  141.1846  163.8231 S.O2    1  UNL1       -0.0131
     20 O         142.6534  142.6611  164.0870 O.2     1  UNL1       -0.1731
     21 O         142.6407  139.7080  163.5593 O.2     1  UNL1       -0.1731
     22 C         144.1453  141.1656  163.8936 C.3     1  UNL1        0.1107
     23 C         144.1839  140.1429  162.7970 C.3     1  UNL1        0.0236
     24 C         144.1068  142.1883  164.9902 C.3     1  UNL1        0.0236
     25 C         145.6435  141.1466  163.9641 C.3     1  UNL1        0.0236
     26 N         137.3578  140.0390  159.5297 N.am    1  UNL1       -0.2948
     27 C         138.0713  140.9236  158.5507 C.2     1  UNL1        0.2462
     28 O         139.5069  141.2924  158.7810 O.2     1  UNL1       -0.2701
     29 H         136.4156  139.7969  159.3785 H       1  UNL1        0.1501
     30 C         137.3492  141.4393  157.3414 C.ar    1  UNL1        0.0564
     31 C         136.4030  140.5460  156.5952 C.ar    1  UNL1        0.0047
     32 C         135.6808  141.0618  155.3858 C.ar    1  UNL1        0.0033
     33 C         135.9048  142.4708  154.9227 C.ar    1  UNL1        0.0372
     34 C         136.8510  143.3641  155.6689 C.ar    1  UNL1        0.1469
     35 C         137.5732  142.8483  156.8783 C.ar    1  UNL1        0.0417
     36 O         137.0749  144.7731  155.2057 O.3     1  UNL1       -0.4045
     37 C         138.4638  145.2502  154.9000 C.3     1  UNL1        0.5753
     38 F         139.8526  145.7274  154.5943 F       1  UNL1       -0.1328
     39 F         138.6894  144.0423  154.0398 F       1  UNL1       -0.1328
     40 F         138.2381  146.4582  155.7602 F       1  UNL1       -0.1328
@<TRIPOS>BOND
     1    15    16    1
     2    16    17    1
     3    16    13    1
     4    13    14    1
     5     7    13    1
     6     7     8    1
     7     8     9    1
     8     9    10    1
     9    10     1    1
    10     1     2    1
    11     2     3    1
    12     3     4    1
    13     4    26    1
    14    26    27   am
    15    27    28    2
    16    27    30    1
    17    30    31   ar
    18    31    32   ar
    19    32    33   ar
    20    33    34   ar
    21    34    36    1
    22    36    37    1
    23    37    38    1
    24    37    39    1
    25    37    40    1
    26    34    35   ar
    27     4     5    1
    28     5     6    2
    29    10    11    1
    30    11    18    1
    31    18    19    1
    32    19    20    2
    33    19    21    2
    34    19    22    1
    35    22    23    1
    36    22    24    1
    37    22    25    1
    38    11    12    1
    39    12     7    1
    40     5     1   am
    41    35    30   ar
    42    26    29    1
@<TRIPOS>MOLECULE
*****
 40 42 0 0 0
SMALL
GASTEIGER

@<TRIPOS>ATOM
      1 N         141.0334  144.1383  163.1985 N.am    1  UNL1       -0.2797
      2 C         140.0824  145.2827  163.3879 C.3     1  UNL1        0.0956
      3 C         139.9813  146.0216  162.0864 C.3     1  UNL1        0.0505
      4 C         140.8698  145.3338  161.0927 C.3     1  UNL1        0.1507
      5 C         141.5200  144.1698  161.7800 C.2     1  UNL1        0.2435
      6 O         142.4871  143.2065  161.1580 O.2     1  UNL1       -0.2731
      7 C         142.2183  141.1371  166.3353 C.3     1  UNL1        0.0577
      8 C         143.1686  142.2306  165.9466 C.3     1  UNL1        0.0177
      9 C         142.7736  143.2310  164.9010 C.3     1  UNL1        0.0212
     10 C         141.4283  143.1379  164.2441 C.3     1  UNL1        0.0771
     11 C         140.4780  142.0444  164.6328 C.3     1  UNL1        0.0431
     12 C         140.8730  141.0440  165.6784 C.3     1  UNL1        0.0194
     13 N         142.6132  140.1368  167.3809 N.3     1  UNL1       -0.2741
     14 C         143.2244  138.8286  166.9744 C.3     1  UNL1        0.0896
     15 C         141.3470  139.7053  169.6081 C.3     1  UNL1        0.0173
     16 C         142.3971  140.4445  168.8329 C.3     1  UNL1        0.0576
     17 C         143.2310  141.4916  169.5100 C.3     1  UNL1        0.0173
     18 C         139.1327  141.9512  163.9760 C.3     1  UNL1        0.1523
     19 S         138.7216  140.6850  163.2848 S.O2    1  UNL1       -0.0131
     20 O         137.7724  140.3813  164.4058 O.2     1  UNL1       -0.1731
     21 O         139.6708  140.9888  162.1638 O.2     1  UNL1       -0.1731
     22 C         138.3105  139.4188  162.5936 C.3     1  UNL1        0.1107
     23 C         137.8437  140.2156  161.4116 C.3     1  UNL1        0.0236
     24 C         138.7773  138.6220  163.7756 C.3     1  UNL1        0.0236
     25 C         137.8993  138.1526  161.9025 C.3     1  UNL1        0.0236
     26 N         141.0725  145.7388  159.6627 N.am    1  UNL1       -0.2948
     27 C         140.2874  145.0681  158.5747 C.2     1  UNL1        0.2462
     28 O         139.2996  143.9923  158.9166 O.2     1  UNL1       -0.2701
     29 H         141.7209  146.4448  159.4382 H       1  UNL1        0.1501
     30 C         140.4902  145.4731  157.1448 C.ar    1  UNL1        0.0564
     31 C         141.4726  144.7316  156.2873 C.ar    1  UNL1        0.0047
     32 C         141.6754  145.1366  154.8573 C.ar    1  UNL1        0.0033
     33 C         140.8958  146.2831  154.2847 C.ar    1  UNL1        0.0372
     34 C         139.9135  147.0246  155.1422 C.ar    1  UNL1        0.1469
     35 C         139.7107  146.6196  156.5722 C.ar    1  UNL1        0.0417
     36 O         139.1339  148.1711  154.5696 O.3     1  UNL1       -0.4045
     37 C         139.3310  149.5563  155.1103 C.3     1  UNL1        0.5753
     38 F         139.5280  150.9415  155.6510 F       1  UNL1       -0.1328
     39 F         138.0045  149.4736  155.8057 F       1  UNL1       -0.1328
     40 F         140.6574  149.6391  154.4149 F       1  UNL1       -0.1328
@<TRIPOS>BOND
     1    15    16    1
     2    16    17    1
     3    16    13    1
     4    13    14    1
     5     7    13    1
     6     7     8    1
     7     8     9    1
     8     9    10    1
     9    10     1    1
    10     1     2    1
    11     2     3    1
    12     3     4    1
    13     4    26    1
    14    26    27   am
    15    27    28    2
    16    27    30    1
    17    30    31   ar
    18    31    32   ar
    19    32    33   ar
    20    33    34   ar
    21    34    36    1
    22    36    37    1
    23    37    38    1
    24    37    39    1
    25    37    40    1
    26    34    35   ar
    27     4     5    1
    28     5     6    2
    29    10    11    1
    30    11    18    1
    31    18    19    1
    32    19    20    2
    33    19    21    2
    34    19    22    1
    35    22    23    1
    36    22    24    1
    37    22    25    1
    38    11    12    1
    39    12     7    1
    40     5     1   am
    41    35    30   ar
    42    26    29    1
@<TRIPOS>MOLECULE
*****
 40 42 0 0 0
SMALL
GASTEIGER

@<TRIPOS>ATOM
      1 N         142.0622  142.0722  162.8356 N.am    1  UNL1       -0.2797
      2 C         142.9715  141.2850  161.9393 C.3     1  UNL1        0.0956
      3 C         142.5300  141.5047  160.5227 C.3     1  UNL1        0.0505
      4 C         141.3478  142.4278  160.5435 C.3     1  UNL1        0.1507
      5 C         141.0588  142.7785  161.9730 C.2     1  UNL1        0.2435
      6 O         139.9593  143.6777  162.4552 O.2     1  UNL1       -0.2731
      7 C         142.3027  142.2788  167.3245 C.3     1  UNL1        0.0577
      8 C         143.4227  142.8222  166.4876 C.3     1  UNL1        0.0177
      9 C         143.3425  142.7533  164.9913 C.3     1  UNL1        0.0212
     10 C         142.1424  142.1411  164.3319 C.3     1  UNL1        0.0771
     11 C         141.0225  141.5977  165.1688 C.3     1  UNL1        0.0431
     12 C         141.1026  141.6665  166.6651 C.3     1  UNL1        0.0194
     13 N         142.3829  142.3476  168.8207 N.3     1  UNL1       -0.2741
     14 C         143.7196  142.3426  169.5012 C.3     1  UNL1        0.0896
     15 C         140.4478  143.7420  169.8508 C.3     1  UNL1        0.0173
     16 C         141.1263  142.4215  169.6365 C.3     1  UNL1        0.0576
     17 C         140.5482  141.1749  170.2381 C.3     1  UNL1        0.0173
     18 C         139.8223  140.9854  164.5094 C.3     1  UNL1        0.1523
     19 S         139.2642  139.6906  165.0213 S.O2    1  UNL1       -0.0131
     20 O         140.5044  138.9777  164.5702 O.2     1  UNL1       -0.1731
     21 O         138.0240  140.4036  165.4724 O.2     1  UNL1       -0.1731
     22 C         138.7061  138.3958  165.5332 C.3     1  UNL1        0.1107
     23 C         139.2805  137.6794  164.3472 C.3     1  UNL1        0.0236
     24 C         138.1317  139.1122  166.7193 C.3     1  UNL1        0.0236
     25 C         138.1481  137.1010  166.0451 C.3     1  UNL1        0.0236
     26 N         140.5881  142.9147  159.3453 N.am    1  UNL1       -0.2948
     27 C         140.8496  144.2866  158.7981 C.2     1  UNL1        0.2462
     28 O         141.8708  145.1717  159.4491 O.2     1  UNL1       -0.2701
     29 H         139.9179  142.3338  158.9180 H       1  UNL1        0.1501
     30 C         140.0899  144.7734  157.5999 C.ar    1  UNL1        0.0564
     31 C         139.1059  143.8698  156.9178 C.ar    1  UNL1        0.0047
     32 C         138.3461  144.3566  155.7195 C.ar    1  UNL1        0.0033
     33 C         138.5703  145.7470  155.2033 C.ar    1  UNL1        0.0372
     34 C         139.5543  146.6507  155.8854 C.ar    1  UNL1        0.1469
     35 C         140.3141  146.1638  157.0837 C.ar    1  UNL1        0.0417
     36 O         139.7784  148.0411  155.3692 O.3     1  UNL1       -0.4045
     37 C         138.7956  149.1278  155.6903 C.3     1  UNL1        0.5753
     38 F         137.8128  150.2145  156.0114 F       1  UNL1       -0.1328
     39 F         138.5354  148.4977  157.0264 F       1  UNL1       -0.1328
     40 F         139.0559  149.7580  154.3542 F       1  UNL1       -0.1328
@<TRIPOS>BOND
     1    15    16    1
     2    16    17    1
     3    16    13    1
     4    13    14    1
     5     7    13    1
     6     7     8    1
     7     8     9    1
     8     9    10    1
     9    10     1    1
    10     1     2    1
    11     2     3    1
    12     3     4    1
    13     4    26    1
    14    26    27   am
    15    27    28    2
    16    27    30    1
    17    30    31   ar
    18    31    32   ar
    19    32    33   ar
    20    33    34   ar
    21    34    36    1
    22    36    37    1
    23    37    38    1
    24    37    39    1
    25    37    40    1
    26    34    35   ar
    27     4     5    1
    28     5     6    2
    29    10    11    1
    30    11    18    1
    31    18    19    1
    32    19    20    2
    33    19    21    2
    34    19    22    1
    35    22    23    1
    36    22    24    1
    37    22    25    1
    38    11    12    1
    39    12     7    1
    40     5     1   am
    41    35    30   ar
    42    26    29    1
@<TRIPOS>MOLECULE
*****
 40 42 0 0 0
SMALL
GASTEIGER

@<TRIPOS>ATOM
      1 N         138.9292  139.6466  162.8102 N.am    1  UNL1       -0.2797
      2 C         137.9788  140.5289  162.0564 C.3     1  UNL1        0.0956
      3 C         137.9281  140.0490  160.6361 C.3     1  UNL1        0.0505
      4 C         138.8472  138.8701  160.5121 C.3     1  UNL1        0.1507
      5 C         139.4659  138.6214  161.8558 C.2     1  UNL1        0.2435
      6 O         140.4488  137.5377  162.1868 O.2     1  UNL1       -0.2731
      7 C         139.9850  140.0112  167.1693 C.3     1  UNL1        0.0577
      8 C         138.8481  139.1300  166.7442 C.3     1  UNL1        0.0177
      9 C         138.4962  139.0085  165.2911 C.3     1  UNL1        0.0212
     10 C         139.2812  139.7681  164.2632 C.3     1  UNL1        0.0771
     11 C         140.4181  140.6493  164.6884 C.3     1  UNL1        0.0431
     12 C         140.7700  140.7709  166.1414 C.3     1  UNL1        0.0194
     13 N         140.3370  140.1328  168.6224 N.3     1  UNL1       -0.2741
     14 C         139.2765  140.4815  169.6243 C.3     1  UNL1        0.0896
     15 C         142.2032  140.4228  170.4064 C.3     1  UNL1        0.0173
     16 C         141.7493  139.9057  169.0735 C.3     1  UNL1        0.0576
     17 C         142.7079  139.1615  168.1918 C.3     1  UNL1        0.0173
     18 C         141.2032  141.4090  163.6604 C.3     1  UNL1        0.1523
     19 S         142.7018  141.4250  163.7223 S.O2    1  UNL1       -0.0131
     20 O         142.6713  142.8796  164.0872 O.2     1  UNL1       -0.1731
     21 O         142.7323  139.9704  163.3575 O.2     1  UNL1       -0.1731
     22 C         144.2005  141.4409  163.7842 C.3     1  UNL1        0.1107
     23 C         144.1422  142.3811  164.9515 C.3     1  UNL1        0.0236
     24 C         144.2588  140.5007  162.6169 C.3     1  UNL1        0.0236
     25 C         145.6991  141.4569  163.8461 C.3     1  UNL1        0.0236
     26 N         139.1028  138.0787  159.2637 N.am    1  UNL1       -0.2948
     27 C         139.8521  138.6998  158.1223 C.2     1  UNL1        0.2462
     28 O         140.3458  140.1121  158.2292 O.2     1  UNL1       -0.2701
     29 H         138.7787  137.1518  159.1935 H       1  UNL1        0.1501
     30 C         140.1076  137.9084  156.8739 C.ar    1  UNL1        0.0564
     31 C         139.1998  138.0620  155.6897 C.ar    1  UNL1        0.0047
     32 C         139.4553  137.2706  154.4412 C.ar    1  UNL1        0.0033
     33 C         140.6185  136.3257  154.3771 C.ar    1  UNL1        0.0372
     34 C         141.5262  136.1721  155.5613 C.ar    1  UNL1        0.1469
     35 C         141.2707  136.9635  156.8098 C.ar    1  UNL1        0.0417
     36 O         142.6894  135.2272  155.4972 O.3     1  UNL1       -0.4045
     37 C         142.7725  134.0741  156.4530 C.3     1  UNL1        0.5753
     38 F         142.8557  132.9210  157.4087 F       1  UNL1       -0.1328
     39 F         141.4827  133.5325  155.9117 F       1  UNL1       -0.1328
     40 F         144.0624  134.6158  156.9942 F       1  UNL1       -0.1328
@<TRIPOS>BOND
     1    15    16    1
     2    16    17    1
     3    16    13    1
     4    13    14    1
     5     7    13    1
     6     7     8    1
     7     8     9    1
     8     9    10    1
     9    10     1    1
    10     1     2    1
    11     2     3    1
    12     3     4    1
    13     4    26    1
    14    26    27   am
    15    27    28    2
    16    27    30    1
    17    30    31   ar
    18    31    32   ar
    19    32    33   ar
    20    33    34   ar
    21    34    36    1
    22    36    37    1
    23    37    38    1
    24    37    39    1
    25    37    40    1
    26    34    35   ar
    27     4     5    1
    28     5     6    2
    29    10    11    1
    30    11    18    1
    31    18    19    1
    32    19    20    2
    33    19    21    2
    34    19    22    1
    35    22    23    1
    36    22    24    1
    37    22    25    1
    38    11    12    1
    39    12     7    1
    40     5     1   am
    41    35    30   ar
    42    26    29    1
@<TRIPOS>MOLECULE
*****
 40 42 0 0 0
SMALL
GASTEIGER

@<TRIPOS>ATOM
      1 N         142.6082  142.9812  163.7507 N.am    1  UNL1       -0.2797
      2 C         142.1650  144.2850  163.1560 C.3     1  UNL1        0.0956
      3 C         142.7143  144.3695  161.7628 C.3     1  UNL1        0.0505
      4 C         143.4970  143.1180  161.4964 C.3     1  UNL1        0.1507
      5 C         143.4314  142.2600  162.7250 C.2     1  UNL1        0.2435
      6 O         144.0760  140.9166  162.8976 O.2     1  UNL1       -0.2731
      7 C         141.6384  141.4946  167.8859 C.3     1  UNL1        0.0577
      8 C         142.9613  142.1476  167.6147 C.3     1  UNL1        0.0177
      9 C         143.2845  142.6431  166.2363 C.3     1  UNL1        0.0212
     10 C         142.2849  142.4857  165.1291 C.3     1  UNL1        0.0771
     11 C         140.9620  141.8327  165.4003 C.3     1  UNL1        0.0431
     12 C         140.6388  141.3372  166.7787 C.3     1  UNL1        0.0194
     13 N         141.3151  140.9991  169.2643 N.3     1  UNL1       -0.2741
     14 C         142.2925  140.1282  169.9966 C.3     1  UNL1        0.0896
     15 C         139.8395  142.7402  170.5057 C.3     1  UNL1        0.0173
     16 C         140.0146  141.3745  169.9104 C.3     1  UNL1        0.0576
     17 C         138.8890  140.3843  169.9613 C.3     1  UNL1        0.0173
     18 C         139.9623  141.6753  164.2931 C.3     1  UNL1        0.1523
     19 S         139.5031  140.3065  163.8863 S.O2    1  UNL1       -0.0131
     20 O         138.1007  140.6584  164.2855 O.2     1  UNL1       -0.1731
     21 O         140.9055  139.9546  163.4872 O.2     1  UNL1       -0.1731
     22 C         139.0437  138.9377  163.4795 C.3     1  UNL1        0.1107
     23 C         138.0853  139.5500  162.5016 C.3     1  UNL1        0.0236
     24 C         140.0022  138.3254  164.4575 C.3     1  UNL1        0.0236
     25 C         138.5844  137.5690  163.0727 C.3     1  UNL1        0.0236
     26 N         144.2186  142.7832  160.2247 N.am    1  UNL1       -0.2948
     27 C         143.6543  141.7539  159.2908 C.2     1  UNL1        0.2462
     28 O         142.3685  141.0594  159.6286 O.2     1  UNL1       -0.2701
     29 H         145.0626  143.2390  160.0030 H       1  UNL1        0.1501
     30 C         144.3760  141.4192  158.0192 C.ar    1  UNL1        0.0564
     31 C         143.9503  140.2334  157.2052 C.ar    1  UNL1        0.0047
     32 C         144.6720  139.8986  155.9334 C.ar    1  UNL1        0.0033
     33 C         145.8193  140.7496  155.4758 C.ar    1  UNL1        0.0372
     34 C         146.2449  141.9355  156.2898 C.ar    1  UNL1        0.1469
     35 C         145.5233  142.2703  157.5616 C.ar    1  UNL1        0.0417
     36 O         147.3922  142.7865  155.8322 O.3     1  UNL1       -0.4045
     37 C         148.4025  142.2306  154.8729 C.3     1  UNL1        0.5753
     38 F         149.4128  141.6746  153.9137 F       1  UNL1       -0.1328
     39 F         147.6839  142.8905  153.7336 F       1  UNL1       -0.1328
     40 F         149.1211  141.5707  156.0123 F       1  UNL1       -0.1328
@<TRIPOS>BOND
     1    15    16    1
     2    16    17    1
     3    16    13    1
     4    13    14    1
     5     7    13    1
     6     7     8    1
     7     8     9    1
     8     9    10    1
     9    10     1    1
    10     1     2    1
    11     2     3    1
    12     3     4    1
    13     4    26    1
    14    26    27   am
    15    27    28    2
    16    27    30    1
    17    30    31   ar
    18    31    32   ar
    19    32    33   ar
    20    33    34   ar
    21    34    36    1
    22    36    37    1
    23    37    38    1
    24    37    39    1
    25    37    40    1
    26    34    35   ar
    27     4     5    1
    28     5     6    2
    29    10    11    1
    30    11    18    1
    31    18    19    1
    32    19    20    2
    33    19    21    2
    34    19    22    1
    35    22    23    1
    36    22    24    1
    37    22    25    1
    38    11    12    1
    39    12     7    1
    40     5     1   am
    41    35    30   ar
    42    26    29    1
