@<TRIPOS>MOLECULE
*****
 44 48 0 0 0
SMALL
GASTEIGER

@<TRIPOS>ATOM
      1 N         140.6305  143.1855  164.6908 N.pl3   1  UNL1       -0.3035
      2 C         141.7563  144.0704  164.2441 C.3     1  UNL1        0.1082
      3 C         141.5290  145.0853  163.1632 C.3     1  UNL1        0.0938
      4 N         140.1759  145.2153  162.5290 N.3     1  UNL1       -0.2695
      5 C         139.0500  144.3304  162.9756 C.3     1  UNL1        0.0938
      6 C         139.2773  143.3155  164.0565 C.3     1  UNL1        0.1082
      7 C         140.4023  141.3076  168.1795 C.ar    1  UNL1       -0.0209
      8 C         140.1750  142.3224  167.0986 C.ar    1  UNL1        0.0118
      9 C         140.8578  142.1706  165.7716 C.ar    1  UNL1        0.0655
     10 C         141.7679  141.0039  165.5256 C.ar    1  UNL1        0.0941
     11 N         142.4507  140.8521  164.1987 N.ar    1  UNL1       -0.2484
     12 C         143.3607  139.6854  163.9526 C.ar    1  UNL1        0.0594
     13 C         143.5880  138.6705  165.0335 C.ar    1  UNL1        0.0147
     14 C         142.9052  138.8223  166.3605 C.ar    1  UNL1        0.0027
     15 C         141.9952  139.9890  166.6065 C.ar    1  UNL1        0.0186
     16 C         141.3124  140.1409  167.9334 C.ar    1  UNL1       -0.0027
     17 C         139.7195  141.4594  169.5064 C.3     1  UNL1        0.0264
     18 C         140.0222  142.6448  170.3743 C.3     1  UNL1        0.0047
     19 C         142.5891  143.0446  170.4060 C.3     1  UNL1        0.0000
     20 C         141.2052  143.5151  170.0693 C.3     1  UNL1        0.0003
     21 C         144.0435  139.5335  162.6257 C.3     1  UNL1        0.0517
     22 C         144.2687  140.7350  161.7563 C.3     1  UNL1        0.0480
     23 C         145.0731  141.8922  162.2697 C.2     1  UNL1        0.0507
     24 O         146.2136  141.6526  163.2142 O.co2   1  UNL1       -0.5492
     25 O         144.7370  143.2891  161.8389 O.co2   1  UNL1       -0.5492
     26 C         139.9486  146.2302  161.4481 C.3     1  UNL1        0.0769
     27 C         139.9764  145.8113  160.0081 C.3     1  UNL1        0.0437
     28 C         140.4868  144.4518  159.6322 C.ar    1  UNL1       -0.0206
     29 C         141.9606  144.1732  159.6480 C.ar    1  UNL1       -0.0011
     30 C         142.4710  142.8137  159.2721 C.ar    1  UNL1        0.0366
     31 C         141.5075  141.7328  158.8804 C.ar    1  UNL1        0.1385
     32 C         140.0337  142.0114  158.8646 C.ar    1  UNL1        0.0366
     33 C         139.5234  143.3709  159.2405 C.ar    1  UNL1       -0.0011
     34 O         142.0179  140.3733  158.5045 O.3     1  UNL1       -0.4754
     35 C         141.8691  139.2259  159.4593 C.3     1  UNL1        0.2068
     36 C         140.7119  139.1890  160.4129 C.3     1  UNL1        0.0646
     37 C         140.6618  138.1479  161.4915 C.3     1  UNL1        0.0759
     38 N         139.9502  138.4366  162.7801 N.3     1  UNL1       -0.2726
     39 C         140.2021  137.4646  163.8945 C.3     1  UNL1        0.0721
     40 C         139.6469  137.4752  165.2879 C.3     1  UNL1        0.0173
     41 C         138.7026  138.4601  165.9111 C.3     1  UNL1        0.0015
     42 C         138.0804  139.6779  165.2947 C.3     1  UNL1        0.0015
     43 C         138.2488  140.2114  163.9029 C.3     1  UNL1        0.0173
     44 C         139.0810  139.6589  162.7838 C.3     1  UNL1        0.0721
@<TRIPOS>UNITY_ATOM_ATTR
24 1
charge -1
@<TRIPOS>BOND
     1    19    20    1
     2    20    18    1
     3    18    17    1
     4    17     7    1
     5     7     8   ar
     6     8     9   ar
     7     9     1    1
     8     1     2    1
     9     2     3    1
    10     3     4    1
    11     4    26    1
    12    26    27    1
    13    27    28    1
    14    28    29   ar
    15    29    30   ar
    16    30    31   ar
    17    31    34    1
    18    34    35    1
    19    35    36    1
    20    36    37    1
    21    37    38    1
    22    38    39    1
    23    39    40    1
    24    40    41    1
    25    41    42    1
    26    42    43    1
    27    43    44    1
    28    31    32   ar
    29    32    33   ar
    30     4     5    1
    31     5     6    1
    32     9    10   ar
    33    10    11   ar
    34    11    12   ar
    35    12    21    1
    36    21    22    1
    37    22    23    1
    38    23    24   ar
    39    23    25   ar
    40    12    13   ar
    41    13    14   ar
    42    14    15   ar
    43    15    16   ar
    44    16     7   ar
    45     6     1    1
    46    15    10   ar
    47    33    28   ar
    48    44    38    1
@<TRIPOS>MOLECULE
*****
 44 48 0 0 0
SMALL
GASTEIGER

@<TRIPOS>ATOM
      1 N         140.2929  143.0586  163.5243 N.pl3   1  UNL1       -0.3035
      2 C         141.5111  143.9040  163.2982 C.3     1  UNL1        0.1082
      3 C         141.6747  144.6543  162.0097 C.3     1  UNL1        0.0938
      4 N         140.6202  144.5592  160.9473 N.3     1  UNL1       -0.2695
      5 C         139.4019  143.7137  161.1733 C.3     1  UNL1        0.0938
      6 C         139.2383  142.9634  162.4618 C.3     1  UNL1        0.1082
      7 C         140.2419  142.2415  167.4076 C.ar    1  UNL1       -0.0209
      8 C         140.4056  142.9918  166.1191 C.ar    1  UNL1        0.0118
      9 C         140.1293  142.3082  164.8128 C.ar    1  UNL1        0.0655
     10 C         139.6893  140.8743  164.7950 C.ar    1  UNL1        0.0941
     11 N         139.4131  140.1907  163.4888 N.ar    1  UNL1       -0.2484
     12 C         138.9731  138.7568  163.4711 C.ar    1  UNL1        0.0594
     13 C         138.8095  138.0065  164.7596 C.ar    1  UNL1        0.0147
     14 C         139.0858  138.6901  166.0658 C.ar    1  UNL1        0.0027
     15 C         139.5257  140.1240  166.0835 C.ar    1  UNL1        0.0186
     16 C         139.8020  140.8076  167.3898 C.ar    1  UNL1       -0.0027
     17 C         140.5183  142.9252  168.7139 C.3     1  UNL1        0.0264
     18 C         141.0470  142.1373  169.8756 C.3     1  UNL1        0.0047
     19 C         143.5841  142.3909  169.3772 C.3     1  UNL1        0.0000
     20 C         142.4246  141.5468  169.8166 C.3     1  UNL1        0.0003
     21 C         138.6968  138.0731  162.1648 C.3     1  UNL1        0.0517
     22 C         139.2537  138.6364  160.8909 C.3     1  UNL1        0.0480
     23 C         138.4122  139.5404  160.0397 C.2     1  UNL1        0.0507
     24 O         138.5320  139.4892  158.5453 O.co2   1  UNL1       -0.5492
     25 O         137.4509  140.4956  160.6827 O.co2   1  UNL1       -0.5492
     26 C         140.7838  145.3095  159.6588 C.3     1  UNL1        0.0769
     27 C         141.6440  144.7460  158.5668 C.3     1  UNL1        0.0437
     28 C         142.1745  143.3472  158.6763 C.ar    1  UNL1       -0.0206
     29 C         143.5710  143.1114  159.1706 C.ar    1  UNL1       -0.0011
     30 C         144.1016  141.7126  159.2801 C.ar    1  UNL1        0.0366
     31 C         143.2357  140.5497  158.8953 C.ar    1  UNL1        0.1385
     32 C         141.8393  140.7856  158.4010 C.ar    1  UNL1        0.0366
     33 C         141.3087  142.1844  158.2915 C.ar    1  UNL1       -0.0011
     34 O         143.7662  139.1510  159.0048 O.3     1  UNL1       -0.4754
     35 C         142.9864  138.1093  159.7511 C.3     1  UNL1        0.2068
     36 C         143.4139  137.6958  161.1281 C.3     1  UNL1        0.0646
     37 C         142.4597  137.8202  162.2787 C.3     1  UNL1        0.0759
     38 N         142.7700  138.7511  163.4132 N.3     1  UNL1       -0.2726
     39 C         143.2423  140.1198  163.0214 C.3     1  UNL1        0.0721
     40 C         143.6282  141.2656  163.9092 C.3     1  UNL1        0.0173
     41 C         143.6373  141.3258  165.4080 C.3     1  UNL1        0.0015
     42 C         143.2626  140.2549  166.3892 C.3     1  UNL1        0.0015
     43 C         142.7863  138.8593  166.1139 C.3     1  UNL1        0.0173
     44 C         142.5671  138.1901  164.7894 C.3     1  UNL1        0.0721
@<TRIPOS>UNITY_ATOM_ATTR
24 1
charge -1
@<TRIPOS>BOND
     1    19    20    1
     2    20    18    1
     3    18    17    1
     4    17     7    1
     5     7     8   ar
     6     8     9   ar
     7     9     1    1
     8     1     2    1
     9     2     3    1
    10     3     4    1
    11     4    26    1
    12    26    27    1
    13    27    28    1
    14    28    29   ar
    15    29    30   ar
    16    30    31   ar
    17    31    34    1
    18    34    35    1
    19    35    36    1
    20    36    37    1
    21    37    38    1
    22    38    39    1
    23    39    40    1
    24    40    41    1
    25    41    42    1
    26    42    43    1
    27    43    44    1
    28    31    32   ar
    29    32    33   ar
    30     4     5    1
    31     5     6    1
    32     9    10   ar
    33    10    11   ar
    34    11    12   ar
    35    12    21    1
    36    21    22    1
    37    22    23    1
    38    23    24   ar
    39    23    25   ar
    40    12    13   ar
    41    13    14   ar
    42    14    15   ar
    43    15    16   ar
    44    16     7   ar
    45     6     1    1
    46    15    10   ar
    47    33    28   ar
    48    44    38    1
@<TRIPOS>MOLECULE
*****
 44 48 0 0 0
SMALL
GASTEIGER

@<TRIPOS>ATOM
      1 N         138.3055  140.2753  159.4444 N.pl3   1  UNL1       -0.3035
      2 C         139.2872  139.1469  159.3325 C.3     1  UNL1        0.1082
      3 C         139.5987  138.3020  160.5322 C.3     1  UNL1        0.0938
      4 N         138.9285  138.5857  161.8437 N.3     1  UNL1       -0.2695
      5 C         137.9466  139.7142  161.9557 C.3     1  UNL1        0.0938
      6 C         137.6351  140.5591  160.7560 C.3     1  UNL1        0.1082
      7 C         136.6294  141.5257  156.0713 C.ar    1  UNL1       -0.0209
      8 C         136.9409  140.6809  157.2710 C.ar    1  UNL1        0.0118
      9 C         137.9939  141.1202  158.2447 C.ar    1  UNL1        0.0655
     10 C         138.7355  142.4044  158.0187 C.ar    1  UNL1        0.0941
     11 N         139.7886  142.8437  158.9924 N.ar    1  UNL1       -0.2484
     12 C         140.5301  144.1278  158.7664 C.ar    1  UNL1        0.0594
     13 C         140.2186  144.9726  157.5667 C.ar    1  UNL1        0.0147
     14 C         139.1656  144.5333  156.5931 C.ar    1  UNL1        0.0027
     15 C         138.4240  143.2492  156.8191 C.ar    1  UNL1        0.0186
     16 C         137.3709  142.8098  155.8453 C.ar    1  UNL1       -0.0027
     17 C         135.5763  141.0864  155.0976 C.3     1  UNL1        0.0264
     18 C         134.7818  139.8421  155.3630 C.3     1  UNL1        0.0047
     19 C         133.3105  139.4819  157.4739 C.3     1  UNL1        0.0000
     20 C         133.4518  139.9339  156.0506 C.3     1  UNL1        0.0003
     21 C         141.5832  144.5671  159.7401 C.3     1  UNL1        0.0517
     22 C         141.2514  144.6930  161.1976 C.3     1  UNL1        0.0480
     23 C         139.9422  145.2909  161.6198 C.2     1  UNL1        0.0507
     24 O         139.7985  146.7799  161.7303 O.co2   1  UNL1       -0.5492
     25 O         138.7765  144.3998  161.9315 O.co2   1  UNL1       -0.5492
     26 C         139.2400  137.7409  163.0434 C.3     1  UNL1        0.0769
     27 C         140.5833  137.0859  163.1711 C.3     1  UNL1        0.0437
     28 C         141.7993  137.9174  163.4536 C.ar    1  UNL1       -0.0206
     29 C         142.6505  138.4103  162.3210 C.ar    1  UNL1       -0.0011
     30 C         143.8666  139.2418  162.6035 C.ar    1  UNL1        0.0366
     31 C         144.2314  139.5805  164.0185 C.ar    1  UNL1        0.1385
     32 C         143.3803  139.0877  165.1510 C.ar    1  UNL1        0.0366
     33 C         142.1642  138.2561  164.8685 C.ar    1  UNL1       -0.0011
     34 O         145.4475  140.4120  164.3010 O.3     1  UNL1       -0.4754
     35 C         145.4847  141.8523  163.8835 C.3     1  UNL1        0.2068
     36 C         145.0219  142.9198  164.8303 C.3     1  UNL1        0.0646
     37 C         143.6414  143.4915  164.6992 C.3     1  UNL1        0.0759
     38 N         142.4475  142.6599  165.0638 N.3     1  UNL1       -0.2726
     39 C         142.2790  142.3689  166.5257 C.3     1  UNL1        0.0721
     40 C         141.2013  141.5754  167.2031 C.3     1  UNL1        0.0173
     41 C         140.0260  140.8769  166.5862 C.3     1  UNL1        0.0015
     42 C         139.6380  140.7994  165.1393 C.3     1  UNL1        0.0015
     43 C         140.3296  141.4012  163.9521 C.3     1  UNL1        0.0173
     44 C         141.5800  142.2293  163.9185 C.3     1  UNL1        0.0721
@<TRIPOS>UNITY_ATOM_ATTR
24 1
charge -1
@<TRIPOS>BOND
     1    19    20    1
     2    20    18    1
     3    18    17    1
     4    17     7    1
     5     7     8   ar
     6     8     9   ar
     7     9     1    1
     8     1     2    1
     9     2     3    1
    10     3     4    1
    11     4    26    1
    12    26    27    1
    13    27    28    1
    14    28    29   ar
    15    29    30   ar
    16    30    31   ar
    17    31    34    1
    18    34    35    1
    19    35    36    1
    20    36    37    1
    21    37    38    1
    22    38    39    1
    23    39    40    1
    24    40    41    1
    25    41    42    1
    26    42    43    1
    27    43    44    1
    28    31    32   ar
    29    32    33   ar
    30     4     5    1
    31     5     6    1
    32     9    10   ar
    33    10    11   ar
    34    11    12   ar
    35    12    21    1
    36    21    22    1
    37    22    23    1
    38    23    24   ar
    39    23    25   ar
    40    12    13   ar
    41    13    14   ar
    42    14    15   ar
    43    15    16   ar
    44    16     7   ar
    45     6     1    1
    46    15    10   ar
    47    33    28   ar
    48    44    38    1
@<TRIPOS>MOLECULE
*****
 44 48 0 0 0
SMALL
GASTEIGER

@<TRIPOS>ATOM
      1 N         142.9707  139.3414  160.2547 N.pl3   1  UNL1       -0.3035
      2 C         143.8049  140.5841  160.1569 C.3     1  UNL1        0.1082
      3 C         144.5571  141.0789  161.3566 C.3     1  UNL1        0.0938
      4 N         144.4751  140.3309  162.6542 N.3     1  UNL1       -0.2695
      5 C         143.6409  139.0881  162.7521 C.3     1  UNL1        0.0938
      6 C         142.8887  138.5933  161.5523 C.3     1  UNL1        0.1082
      7 C         141.9288  137.1197  157.1357 C.ar    1  UNL1       -0.0209
      8 C         142.6810  137.6144  158.3354 C.ar    1  UNL1        0.0118
      9 C         142.2185  138.8466  159.0550 C.ar    1  UNL1        0.0655
     10 C         141.0037  139.5841  158.5748 C.ar    1  UNL1        0.0941
     11 N         140.5412  140.8162  159.2943 N.ar    1  UNL1       -0.2484
     12 C         139.3265  141.5536  158.8141 C.ar    1  UNL1        0.0594
     13 C         138.5743  141.0588  157.6144 C.ar    1  UNL1        0.0147
     14 C         139.0368  139.8267  156.8948 C.ar    1  UNL1        0.0027
     15 C         140.2515  139.0893  157.3750 C.ar    1  UNL1        0.0186
     16 C         140.7141  137.8570  156.6555 C.ar    1  UNL1       -0.0027
     17 C         142.3914  135.8874  156.4161 C.3     1  UNL1        0.0264
     18 C         143.2022  134.8550  157.1419 C.3     1  UNL1        0.0047
     19 C         143.4296  132.2699  157.0187 C.3     1  UNL1        0.0000
     20 C         143.6684  133.6249  156.4213 C.3     1  UNL1        0.0003
     21 C         138.8639  142.7859  159.5337 C.3     1  UNL1        0.0517
     22 C         139.7012  143.3721  160.6315 C.3     1  UNL1        0.0480
     23 C         140.3468  144.7135  160.4476 C.2     1  UNL1        0.0507
     24 O         141.7812  144.8030  160.0180 O.co2   1  UNL1       -0.5492
     25 O         139.5579  145.9655  160.6932 O.co2   1  UNL1       -0.5492
     26 C         145.2273  140.8257  163.8539 C.3     1  UNL1        0.0769
     27 C         145.1286  142.2665  164.2593 C.3     1  UNL1        0.0437
     28 C         143.7869  142.9318  164.3433 C.ar    1  UNL1       -0.0206
     29 C         143.5491  144.2325  163.6350 C.ar    1  UNL1       -0.0011
     30 C         142.2073  144.8978  163.7189 C.ar    1  UNL1        0.0366
     31 C         141.1034  144.2624  164.5112 C.ar    1  UNL1        0.1385
     32 C         141.3412  142.9617  165.2194 C.ar    1  UNL1        0.0366
     33 C         142.6830  142.2964  165.1355 C.ar    1  UNL1       -0.0011
     34 O         139.7616  144.9277  164.5951 O.3     1  UNL1       -0.4754
     35 C         138.6127  144.4036  163.7855 C.3     1  UNL1        0.2068
     36 C         137.8253  143.2250  164.2762 C.3     1  UNL1        0.0646
     37 C         137.3884  142.1613  163.3130 C.3     1  UNL1        0.0759
     38 N         137.8875  140.7557  163.4709 N.3     1  UNL1       -0.2726
     39 C         138.1612  140.3165  164.8789 C.3     1  UNL1        0.0721
     40 C         138.6619  138.9883  165.3636 C.3     1  UNL1        0.0173
     41 C         139.0126  137.7710  164.5602 C.3     1  UNL1        0.0015
     42 C         138.9491  137.5815  163.0736 C.3     1  UNL1        0.0015
     43 C         138.5193  138.5624  162.0232 C.3     1  UNL1        0.0173
     44 C         138.0469  139.9750  162.2001 C.3     1  UNL1        0.0721
@<TRIPOS>UNITY_ATOM_ATTR
24 1
charge -1
@<TRIPOS>BOND
     1    19    20    1
     2    20    18    1
     3    18    17    1
     4    17     7    1
     5     7     8   ar
     6     8     9   ar
     7     9     1    1
     8     1     2    1
     9     2     3    1
    10     3     4    1
    11     4    26    1
    12    26    27    1
    13    27    28    1
    14    28    29   ar
    15    29    30   ar
    16    30    31   ar
    17    31    34    1
    18    34    35    1
    19    35    36    1
    20    36    37    1
    21    37    38    1
    22    38    39    1
    23    39    40    1
    24    40    41    1
    25    41    42    1
    26    42    43    1
    27    43    44    1
    28    31    32   ar
    29    32    33   ar
    30     4     5    1
    31     5     6    1
    32     9    10   ar
    33    10    11   ar
    34    11    12   ar
    35    12    21    1
    36    21    22    1
    37    22    23    1
    38    23    24   ar
    39    23    25   ar
    40    12    13   ar
    41    13    14   ar
    42    14    15   ar
    43    15    16   ar
    44    16     7   ar
    45     6     1    1
    46    15    10   ar
    47    33    28   ar
    48    44    38    1
@<TRIPOS>MOLECULE
*****
 44 48 0 0 0
SMALL
GASTEIGER

@<TRIPOS>ATOM
      1 N         141.9009  142.9260  163.5039 N.pl3   1  UNL1       -0.3035
      2 C         142.9648  143.0879  162.4590 C.3     1  UNL1        0.1082
      3 C         142.7131  143.9537  161.2603 C.3     1  UNL1        0.0938
      4 N         141.3975  144.6576  161.1064 N.3     1  UNL1       -0.2695
      5 C         140.3336  144.4957  162.1514 C.3     1  UNL1        0.0938
      6 C         140.5853  143.6299  163.3501 C.3     1  UNL1        0.1082
      7 C         142.5929  141.8195  167.2518 C.ar    1  UNL1       -0.0209
      8 C         142.3412  142.6853  166.0531 C.ar    1  UNL1        0.0118
      9 C         142.1526  142.0602  164.7027 C.ar    1  UNL1        0.0655
     10 C         142.2157  140.5691  164.5510 C.ar    1  UNL1        0.0941
     11 N         142.0271  139.9440  163.2006 N.ar    1  UNL1       -0.2484
     12 C         142.0903  138.4530  163.0490 C.ar    1  UNL1        0.0594
     13 C         142.3419  137.5872  164.2477 C.ar    1  UNL1        0.0147
     14 C         142.5305  138.2124  165.5981 C.ar    1  UNL1        0.0027
     15 C         142.4674  139.7033  165.7498 C.ar    1  UNL1        0.0186
     16 C         142.6560  140.3285  167.1002 C.ar    1  UNL1       -0.0027
     17 C         142.7815  142.4447  168.6023 C.3     1  UNL1        0.0264
     18 C         141.6021  143.0049  169.3407 C.3     1  UNL1        0.0047
     19 C         139.7659  141.2131  169.7507 C.3     1  UNL1        0.0000
     20 C         140.2266  142.4697  169.0733 C.3     1  UNL1        0.0003
     21 C         141.9017  137.8278  161.6985 C.3     1  UNL1        0.0517
     22 C         143.0712  137.6785  160.7713 C.3     1  UNL1        0.0480
     23 C         143.3660  138.7446  159.7581 C.2     1  UNL1        0.0507
     24 O         143.3193  138.4213  158.2940 O.co2   1  UNL1       -0.5492
     25 O         143.7074  140.1339  160.2089 O.co2   1  UNL1       -0.5492
     26 C         141.1458  145.5234  159.9077 C.3     1  UNL1        0.0769
     27 C         140.8014  144.8969  158.5890 C.3     1  UNL1        0.0437
     28 C         140.3692  143.4617  158.5306 C.ar    1  UNL1       -0.0206
     29 C         138.9463  143.0942  158.8309 C.ar    1  UNL1       -0.0011
     30 C         138.5141  141.6590  158.7725 C.ar    1  UNL1        0.0366
     31 C         139.5049  140.5913  158.4138 C.ar    1  UNL1        0.1385
     32 C         140.9277  140.9590  158.1135 C.ar    1  UNL1        0.0366
     33 C         141.3599  142.3942  158.1719 C.ar    1  UNL1       -0.0011
     34 O         139.0727  139.1561  158.3554 O.3     1  UNL1       -0.4754
     35 C         139.0801  138.3194  159.6003 C.3     1  UNL1        0.2068
     36 C         138.3332  138.7788  160.8173 C.3     1  UNL1        0.0646
     37 C         138.3326  137.9374  162.0590 C.3     1  UNL1        0.0759
     38 N         138.4942  138.5837  163.4030 N.3     1  UNL1       -0.2726
     39 C         138.4388  140.0826  163.4152 C.3     1  UNL1        0.0721
     40 C         138.5654  141.0136  164.5845 C.3     1  UNL1        0.0173
     41 C         138.7786  140.6757  166.0304 C.3     1  UNL1        0.0015
     42 C         138.9179  139.3232  166.6639 C.3     1  UNL1        0.0015
     43 C         138.8784  137.9747  166.0082 C.3     1  UNL1        0.0173
     44 C         138.6898  137.6456  164.5569 C.3     1  UNL1        0.0721
@<TRIPOS>UNITY_ATOM_ATTR
24 1
charge -1
@<TRIPOS>BOND
     1    19    20    1
     2    20    18    1
     3    18    17    1
     4    17     7    1
     5     7     8   ar
     6     8     9   ar
     7     9     1    1
     8     1     2    1
     9     2     3    1
    10     3     4    1
    11     4    26    1
    12    26    27    1
    13    27    28    1
    14    28    29   ar
    15    29    30   ar
    16    30    31   ar
    17    31    34    1
    18    34    35    1
    19    35    36    1
    20    36    37    1
    21    37    38    1
    22    38    39    1
    23    39    40    1
    24    40    41    1
    25    41    42    1
    26    42    43    1
    27    43    44    1
    28    31    32   ar
    29    32    33   ar
    30     4     5    1
    31     5     6    1
    32     9    10   ar
    33    10    11   ar
    34    11    12   ar
    35    12    21    1
    36    21    22    1
    37    22    23    1
    38    23    24   ar
    39    23    25   ar
    40    12    13   ar
    41    13    14   ar
    42    14    15   ar
    43    15    16   ar
    44    16     7   ar
    45     6     1    1
    46    15    10   ar
    47    33    28   ar
    48    44    38    1
@<TRIPOS>MOLECULE
*****
 44 48 0 0 0
SMALL
GASTEIGER

@<TRIPOS>ATOM
      1 N         139.9368  144.1806  159.1460 N.pl3   1  UNL1       -0.3035
      2 C         140.2285  145.0498  160.3331 C.3     1  UNL1        0.1082
      3 C         139.5667  144.7683  161.6495 C.3     1  UNL1        0.0938
      4 N         138.6131  143.6177  161.7787 N.3     1  UNL1       -0.2695
      5 C         138.3213  142.7484  160.5915 C.3     1  UNL1        0.0938
      6 C         138.9832  143.0299  159.2751 C.3     1  UNL1        0.1082
      7 C         140.7499  145.8498  155.6385 C.ar    1  UNL1       -0.0209
      8 C         140.0881  145.5684  156.9549 C.ar    1  UNL1        0.0118
      9 C         140.5986  144.4620  157.8296 C.ar    1  UNL1        0.0655
     10 C         141.7710  143.6370  157.3880 C.ar    1  UNL1        0.0941
     11 N         142.2815  142.5306  158.2628 N.ar    1  UNL1       -0.2484
     12 C         143.4538  141.7057  157.8212 C.ar    1  UNL1        0.0594
     13 C         144.1156  141.9871  156.5049 C.ar    1  UNL1        0.0147
     14 C         143.6051  143.0935  155.6301 C.ar    1  UNL1        0.0027
     15 C         142.4328  143.9184  156.0717 C.ar    1  UNL1        0.0186
     16 C         141.9222  145.0249  155.1969 C.ar    1  UNL1       -0.0027
     17 C         140.2394  146.9563  154.7637 C.3     1  UNL1        0.0264
     18 C         139.1578  147.8682  155.2624 C.3     1  UNL1        0.0047
     19 C         138.4092  150.2983  155.7955 C.3     1  UNL1        0.0000
     20 C         139.2311  149.3405  154.9849 C.3     1  UNL1        0.0003
     21 C         143.9644  140.5992  158.6960 C.3     1  UNL1        0.0517
     22 C         143.0038  139.6232  159.3081 C.3     1  UNL1        0.0480
     23 C         143.4781  138.6617  160.3572 C.2     1  UNL1        0.0507
     24 O         143.0980  137.2130  160.2737 O.co2   1  UNL1       -0.5492
     25 O         144.3325  139.1489  161.4897 O.co2   1  UNL1       -0.5492
     26 C         137.9513  143.3363  163.0950 C.3     1  UNL1        0.0769
     27 C         137.7979  141.9218  163.5701 C.3     1  UNL1        0.0437
     28 C         138.5335  141.4571  164.7920 C.ar    1  UNL1       -0.0206
     29 C         138.3480  140.0547  165.2911 C.ar    1  UNL1       -0.0011
     30 C         139.0836  139.5901  166.5130 C.ar    1  UNL1        0.0366
     31 C         140.0046  140.5278  167.2358 C.ar    1  UNL1        0.1385
     32 C         140.1901  141.9301  166.7367 C.ar    1  UNL1        0.0366
     33 C         139.4545  142.3948  165.5149 C.ar    1  UNL1       -0.0011
     34 O         140.7402  140.0631  168.4577 O.3     1  UNL1       -0.4754
     35 C         142.1181  139.4843  168.3288 C.3     1  UNL1        0.2068
     36 C         142.8944  139.6715  167.0590 C.3     1  UNL1        0.0646
     37 C         142.8906  138.5971  166.0124 C.3     1  UNL1        0.0759
     38 N         142.0605  138.7597  164.7736 N.3     1  UNL1       -0.2726
     39 C         142.1192  140.1103  164.1235 C.3     1  UNL1        0.0721
     40 C         141.4133  140.5848  162.8880 C.3     1  UNL1        0.0173
     41 C         140.4745  139.8262  161.9974 C.3     1  UNL1        0.0015
     42 C         140.0096  138.4056  162.1224 C.3     1  UNL1        0.0015
     43 C         140.3688  137.3927  163.1689 C.3     1  UNL1        0.0173
     44 C         141.2815  137.5503  164.3488 C.3     1  UNL1        0.0721
@<TRIPOS>UNITY_ATOM_ATTR
24 1
charge -1
@<TRIPOS>BOND
     1    19    20    1
     2    20    18    1
     3    18    17    1
     4    17     7    1
     5     7     8   ar
     6     8     9   ar
     7     9     1    1
     8     1     2    1
     9     2     3    1
    10     3     4    1
    11     4    26    1
    12    26    27    1
    13    27    28    1
    14    28    29   ar
    15    29    30   ar
    16    30    31   ar
    17    31    34    1
    18    34    35    1
    19    35    36    1
    20    36    37    1
    21    37    38    1
    22    38    39    1
    23    39    40    1
    24    40    41    1
    25    41    42    1
    26    42    43    1
    27    43    44    1
    28    31    32   ar
    29    32    33   ar
    30     4     5    1
    31     5     6    1
    32     9    10   ar
    33    10    11   ar
    34    11    12   ar
    35    12    21    1
    36    21    22    1
    37    22    23    1
    38    23    24   ar
    39    23    25   ar
    40    12    13   ar
    41    13    14   ar
    42    14    15   ar
    43    15    16   ar
    44    16     7   ar
    45     6     1    1
    46    15    10   ar
    47    33    28   ar
    48    44    38    1
@<TRIPOS>MOLECULE
*****
 44 48 0 0 0
SMALL
GASTEIGER

@<TRIPOS>ATOM
      1 N         141.7090  144.0060  160.0792 N.pl3   1  UNL1       -0.3035
      2 C         141.3195  144.7102  161.3450 C.3     1  UNL1        0.1082
      3 C         142.2178  144.6481  162.5447 C.3     1  UNL1        0.0938
      4 N         143.5055  143.8817  162.4787 N.3     1  UNL1       -0.2695
      5 C         143.8950  143.1774  161.2128 C.3     1  UNL1        0.0938
      6 C         142.9968  143.2395  160.0131 C.3     1  UNL1        0.1082
      7 C         140.0261  145.2742  156.7163 C.ar    1  UNL1       -0.0209
      8 C         140.9243  145.2121  157.9161 C.ar    1  UNL1        0.0118
      9 C         140.8108  144.0681  158.8795 C.ar    1  UNL1        0.0655
     10 C         139.7990  142.9861  158.6433 C.ar    1  UNL1        0.0941
     11 N         139.6856  141.8421  159.6067 N.ar    1  UNL1       -0.2484
     12 C         138.6738  140.7602  159.3704 C.ar    1  UNL1        0.0594
     13 C         137.7756  140.8223  158.1707 C.ar    1  UNL1        0.0147
     14 C         137.8891  141.9663  157.2073 C.ar    1  UNL1        0.0027
     15 C         138.9008  143.0482  157.4435 C.ar    1  UNL1        0.0186
     16 C         139.0143  144.1923  156.4801 C.ar    1  UNL1       -0.0027
     17 C         140.1396  146.4183  155.7529 C.3     1  UNL1        0.0264
     18 C         139.0815  147.4812  155.7226 C.3     1  UNL1        0.0047
     19 C         140.0633  148.6981  153.6477 C.3     1  UNL1        0.0000
     20 C         139.3074  148.7423  154.9426 C.3     1  UNL1        0.0003
     21 C         138.5603  139.6161  160.3339 C.3     1  UNL1        0.0517
     22 C         139.4369  138.4097  160.1723 C.3     1  UNL1        0.0480
     23 C         140.7889  138.3727  160.8209 C.2     1  UNL1        0.0507
     24 O         141.1218  137.2858  161.7996 O.co2   1  UNL1       -0.5492
     25 O         141.8081  139.4226  160.4907 O.co2   1  UNL1       -0.5492
     26 C         144.4037  143.8196  163.6784 C.3     1  UNL1        0.0769
     27 C         145.0075  142.5117  164.0963 C.3     1  UNL1        0.0437
     28 C         144.1246  141.3280  164.3596 C.ar    1  UNL1       -0.0206
     29 C         144.1587  140.1466  163.4358 C.ar    1  UNL1       -0.0011
     30 C         143.2757  138.9630  163.6991 C.ar    1  UNL1        0.0366
     31 C         142.3586  138.9607  164.8862 C.ar    1  UNL1        0.1385
     32 C         142.3245  140.1420  165.8099 C.ar    1  UNL1        0.0366
     33 C         143.2075  141.3257  165.5466 C.ar    1  UNL1       -0.0011
     34 O         141.4756  137.7771  165.1495 O.3     1  UNL1       -0.4754
     35 C         139.9840  137.9343  165.1267 C.3     1  UNL1        0.2068
     36 C         139.3477  138.9176  164.1895 C.3     1  UNL1        0.0646
     37 C         138.2841  139.8497  164.6893 C.3     1  UNL1        0.0759
     38 N         138.4488  141.3318  164.5266 N.3     1  UNL1       -0.2726
     39 C         137.7179  141.9446  163.3689 C.3     1  UNL1        0.0721
     40 C         137.6804  143.3820  162.9418 C.3     1  UNL1        0.0173
     41 C         138.3643  144.5616  163.5669 C.3     1  UNL1        0.0015
     42 C         139.2548  144.5951  164.7735 C.3     1  UNL1        0.0015
     43 C         139.6813  143.4573  165.6530 C.3     1  UNL1        0.0173
     44 C         139.3226  142.0049  165.5431 C.3     1  UNL1        0.0721
@<TRIPOS>UNITY_ATOM_ATTR
24 1
charge -1
@<TRIPOS>BOND
     1    19    20    1
     2    20    18    1
     3    18    17    1
     4    17     7    1
     5     7     8   ar
     6     8     9   ar
     7     9     1    1
     8     1     2    1
     9     2     3    1
    10     3     4    1
    11     4    26    1
    12    26    27    1
    13    27    28    1
    14    28    29   ar
    15    29    30   ar
    16    30    31   ar
    17    31    34    1
    18    34    35    1
    19    35    36    1
    20    36    37    1
    21    37    38    1
    22    38    39    1
    23    39    40    1
    24    40    41    1
    25    41    42    1
    26    42    43    1
    27    43    44    1
    28    31    32   ar
    29    32    33   ar
    30     4     5    1
    31     5     6    1
    32     9    10   ar
    33    10    11   ar
    34    11    12   ar
    35    12    21    1
    36    21    22    1
    37    22    23    1
    38    23    24   ar
    39    23    25   ar
    40    12    13   ar
    41    13    14   ar
    42    14    15   ar
    43    15    16   ar
    44    16     7   ar
    45     6     1    1
    46    15    10   ar
    47    33    28   ar
    48    44    38    1
@<TRIPOS>MOLECULE
*****
 44 48 0 0 0
SMALL
GASTEIGER

@<TRIPOS>ATOM
      1 N         142.9013  143.1101  159.5264 N.pl3   1  UNL1       -0.3035
      2 C         143.1770  142.9680  160.9939 C.3     1  UNL1        0.1082
      3 C         142.4036  143.7863  161.9850 C.3     1  UNL1        0.0938
      4 N         141.3545  144.7466  161.5085 N.3     1  UNL1       -0.2695
      5 C         141.0788  144.8888  160.0409 C.3     1  UNL1        0.0938
      6 C         141.8522  144.0705  159.0498 C.3     1  UNL1        0.1082
      7 C         145.7695  141.9664  157.0332 C.ar    1  UNL1       -0.0209
      8 C         144.9960  142.7847  158.0243 C.ar    1  UNL1        0.0118
      9 C         143.6748  142.2918  158.5353 C.ar    1  UNL1        0.0655
     10 C         143.1268  140.9805  158.0553 C.ar    1  UNL1        0.0941
     11 N         141.8056  140.4875  158.5663 N.ar    1  UNL1       -0.2484
     12 C         141.2577  139.1763  158.0862 C.ar    1  UNL1        0.0594
     13 C         142.0311  138.3580  157.0951 C.ar    1  UNL1        0.0147
     14 C         143.3524  138.8510  156.5841 C.ar    1  UNL1        0.0027
     15 C         143.9003  140.1622  157.0642 C.ar    1  UNL1        0.0186
     16 C         145.2216  140.6552  156.5532 C.ar    1  UNL1       -0.0027
     17 C         147.0908  142.4594  156.5222 C.3     1  UNL1        0.0264
     18 C         147.3288  142.5729  155.0456 C.3     1  UNL1        0.0047
     19 C         147.1045  144.7915  153.7123 C.3     1  UNL1        0.0000
     20 C         146.5021  143.5162  154.2230 C.3     1  UNL1        0.0003
     21 C         139.9364  138.6833  158.5972 C.3     1  UNL1        0.0517
     22 C         139.3579  139.2571  159.8567 C.3     1  UNL1        0.0480
     23 C         138.0111  139.9168  159.8308 C.2     1  UNL1        0.0507
     24 O         137.3673  140.2564  158.5191 O.co2   1  UNL1       -0.5492
     25 O         137.3078  140.2369  161.1165 O.co2   1  UNL1       -0.5492
     26 C         140.5811  145.5649  162.4996 C.3     1  UNL1        0.0769
     27 C         139.2510  145.0810  162.9963 C.3     1  UNL1        0.0437
     28 C         139.1667  143.8242  163.8108 C.ar    1  UNL1       -0.0206
     29 C         138.0882  142.8199  163.5307 C.ar    1  UNL1       -0.0011
     30 C         138.0038  141.5632  164.3452 C.ar    1  UNL1        0.0366
     31 C         138.9979  141.3107  165.4398 C.ar    1  UNL1        0.1385
     32 C         140.0763  142.3149  165.7199 C.ar    1  UNL1        0.0366
     33 C         140.1607  143.5717  164.9054 C.ar    1  UNL1       -0.0011
     34 O         138.9135  140.0539  166.2543 O.3     1  UNL1       -0.4754
     35 C         138.4804  138.7703  165.6101 C.3     1  UNL1        0.2068
     36 C         139.4171  138.0359  164.6972 C.3     1  UNL1        0.0646
     37 C         140.8911  138.0386  164.9751 C.3     1  UNL1        0.0759
     38 N         141.8595  138.3856  163.8834 N.3     1  UNL1       -0.2726
     39 C         141.6498  137.6770  162.5780 C.3     1  UNL1        0.0721
     40 C         142.4384  137.8031  161.3083 C.3     1  UNL1        0.0173
     41 C         143.6314  138.6689  161.0303 C.3     1  UNL1        0.0015
     42 C         144.3305  139.6224  161.9534 C.3     1  UNL1        0.0015
     43 C         144.0091  139.9456  163.3825 C.3     1  UNL1        0.0173
     44 C         142.9094  139.3951  164.2414 C.3     1  UNL1        0.0721
@<TRIPOS>UNITY_ATOM_ATTR
24 1
charge -1
@<TRIPOS>BOND
     1    19    20    1
     2    20    18    1
     3    18    17    1
     4    17     7    1
     5     7     8   ar
     6     8     9   ar
     7     9     1    1
     8     1     2    1
     9     2     3    1
    10     3     4    1
    11     4    26    1
    12    26    27    1
    13    27    28    1
    14    28    29   ar
    15    29    30   ar
    16    30    31   ar
    17    31    34    1
    18    34    35    1
    19    35    36    1
    20    36    37    1
    21    37    38    1
    22    38    39    1
    23    39    40    1
    24    40    41    1
    25    41    42    1
    26    42    43    1
    27    43    44    1
    28    31    32   ar
    29    32    33   ar
    30     4     5    1
    31     5     6    1
    32     9    10   ar
    33    10    11   ar
    34    11    12   ar
    35    12    21    1
    36    21    22    1
    37    22    23    1
    38    23    24   ar
    39    23    25   ar
    40    12    13   ar
    41    13    14   ar
    42    14    15   ar
    43    15    16   ar
    44    16     7   ar
    45     6     1    1
    46    15    10   ar
    47    33    28   ar
    48    44    38    1
@<TRIPOS>MOLECULE
*****
 44 48 0 0 0
SMALL
GASTEIGER

@<TRIPOS>ATOM
      1 N         141.6125  138.8228  159.7531 N.pl3   1  UNL1       -0.3035
      2 C         140.1134  138.8560  159.7122 C.3     1  UNL1        0.1082
      3 C         139.3199  138.3474  160.8791 C.3     1  UNL1        0.0938
      4 N         140.0254  137.8056  162.0868 N.3     1  UNL1       -0.2695
      5 C         141.5245  137.7723  162.1277 C.3     1  UNL1        0.0938
      6 C         142.3181  138.2809  160.9608 C.3     1  UNL1        0.1082
      7 C         143.4907  141.3059  157.2921 C.ar    1  UNL1       -0.0209
      8 C         142.6971  140.7973  158.4590 C.ar    1  UNL1        0.0118
      9 C         142.4060  139.3314  158.5862 C.ar    1  UNL1        0.0655
     10 C         142.9085  138.3739  157.5464 C.ar    1  UNL1        0.0941
     11 N         142.6174  136.9080  157.6736 N.ar    1  UNL1       -0.2484
     12 C         143.1198  135.9507  156.6339 C.ar    1  UNL1        0.0594
     13 C         143.9133  136.4593  155.4671 C.ar    1  UNL1        0.0147
     14 C         144.2044  137.9252  155.3399 C.ar    1  UNL1        0.0027
     15 C         143.7020  138.8825  156.3796 C.ar    1  UNL1        0.0186
     16 C         143.9931  140.3486  156.2524 C.ar    1  UNL1       -0.0027
     17 C         143.7818  142.7720  157.1649 C.3     1  UNL1        0.0264
     18 C         143.0086  143.7638  157.9826 C.3     1  UNL1        0.0047
     19 C         141.9093  145.6458  156.5686 C.3     1  UNL1        0.0000
     20 C         141.7821  144.4121  157.4124 C.3     1  UNL1        0.0003
     21 C         142.8287  134.4846  156.7611 C.3     1  UNL1        0.0517
     22 C         143.6589  133.4872  156.0088 C.3     1  UNL1        0.0480
     23 C         144.6360  132.6183  156.7437 C.2     1  UNL1        0.0507
     24 O         144.9449  132.8908  158.1861 O.co2   1  UNL1       -0.5492
     25 O         145.3045  131.4769  156.0363 O.co2   1  UNL1       -0.5492
     26 C         139.2319  137.2970  163.2537 C.3     1  UNL1        0.0769
     27 C         139.5537  137.7667  164.6414 C.3     1  UNL1        0.0437
     28 C         139.6043  139.2351  164.9434 C.ar    1  UNL1       -0.0206
     29 C         138.4625  140.1225  164.5446 C.ar    1  UNL1       -0.0011
     30 C         138.5130  141.5909  164.8466 C.ar    1  UNL1        0.0366
     31 C         139.7053  142.1720  165.5472 C.ar    1  UNL1        0.1385
     32 C         140.8470  141.2845  165.9459 C.ar    1  UNL1        0.0366
     33 C         140.7965  139.8161  165.6440 C.ar    1  UNL1       -0.0011
     34 O         139.7559  143.6404  165.8492 O.3     1  UNL1       -0.4754
     35 C         139.4038  144.6374  164.7852 C.3     1  UNL1        0.2068
     36 C         140.2633  144.7644  163.5624 C.3     1  UNL1        0.0646
     37 C         141.6968  145.1859  163.6938 C.3     1  UNL1        0.0759
     38 N         142.7955  144.1941  163.4506 N.3     1  UNL1       -0.2726
     39 C         143.0497  143.8435  162.0145 C.3     1  UNL1        0.0721
     40 C         144.0659  142.8962  161.4488 C.3     1  UNL1        0.0173
     41 C         145.0789  142.0656  162.1795 C.3     1  UNL1        0.0015
     42 C         145.3259  141.9771  163.6564 C.3     1  UNL1        0.0015
     43 C         144.6208  142.6974  164.7673 C.3     1  UNL1        0.0173
     44 C         143.4947  143.6840  164.6757 C.3     1  UNL1        0.0721
@<TRIPOS>UNITY_ATOM_ATTR
24 1
charge -1
@<TRIPOS>BOND
     1    19    20    1
     2    20    18    1
     3    18    17    1
     4    17     7    1
     5     7     8   ar
     6     8     9   ar
     7     9     1    1
     8     1     2    1
     9     2     3    1
    10     3     4    1
    11     4    26    1
    12    26    27    1
    13    27    28    1
    14    28    29   ar
    15    29    30   ar
    16    30    31   ar
    17    31    34    1
    18    34    35    1
    19    35    36    1
    20    36    37    1
    21    37    38    1
    22    38    39    1
    23    39    40    1
    24    40    41    1
    25    41    42    1
    26    42    43    1
    27    43    44    1
    28    31    32   ar
    29    32    33   ar
    30     4     5    1
    31     5     6    1
    32     9    10   ar
    33    10    11   ar
    34    11    12   ar
    35    12    21    1
    36    21    22    1
    37    22    23    1
    38    23    24   ar
    39    23    25   ar
    40    12    13   ar
    41    13    14   ar
    42    14    15   ar
    43    15    16   ar
    44    16     7   ar
    45     6     1    1
    46    15    10   ar
    47    33    28   ar
    48    44    38    1
