@<TRIPOS>MOLECULE
*****
 27 30 0 0 0
SMALL
GASTEIGER

@<TRIPOS>ATOM
      1 C         138.8302  140.4534  165.4301 C.3     1  UNL1        0.1343
      2 C         138.5988  140.8772  164.0100 C.ar    1  UNL1        0.1615
      3 N         137.7416  140.3065  162.9193 N.ar    1  UNL1       -0.1316
      4 N         137.9146  141.1611  161.6988 N.ar    1  UNL1       -0.1268
      5 C         138.8787  142.2599  162.0351 C.ar    1  UNL1        0.1917
      6 N         139.3015  142.0845  163.4635 N.ar    1  UNL1       -0.2940
      7 C         140.2357  142.8680  164.3372 C.3     1  UNL1        0.1302
      8 C         140.4671  142.4442  165.7574 C.3     1  UNL1        0.1186
      9 N         139.7644  141.2370  166.3038 N.am    1  UNL1       -0.2688
     10 C         139.9959  140.8133  167.7241 C.2     1  UNL1        0.2494
     11 O         139.2931  139.6060  168.2705 O.2     1  UNL1       -0.2699
     12 C         140.9301  141.5968  168.5978 C.ar    1  UNL1        0.0537
     13 C         142.3622  141.1722  168.7349 C.ar    1  UNL1        0.0068
     14 C         143.2963  141.9558  169.6087 C.ar    1  UNL1        0.0298
     15 C         142.7984  143.1639  170.3452 C.ar    1  UNL1        0.1401
     16 F         143.7325  143.9475  171.2189 F       1  UNL1       -0.2042
     17 C         141.3662  143.5884  170.2081 C.ar    1  UNL1        0.0298
     18 C         140.4320  142.8049  169.3344 C.ar    1  UNL1        0.0068
     19 C         139.3390  143.3439  161.1061 C.ar    1  UNL1        0.1652
     20 N         139.5784  143.1994  159.6324 N.ar    1  UNL1       -0.2190
     21 C         140.0282  144.5289  159.1033 C.ar    1  UNL1        0.1481
     22 C         140.3779  144.8379  157.6777 C.3     1  UNL1        0.0744
     23 N         140.0668  145.4952  160.2499 N.ar    1  UNL1       -0.1929
     24 S         139.6409  144.7628  161.4877 S.2     1  UNL1        0.0369
     25 C         138.1275  139.2461  165.9767 C.3     1  UNL1        0.0276
     26 C         139.8750  137.6185  164.9537 C.3     1  UNL1        0.0001
     27 C         138.4971  137.8774  165.4869 C.3     1  UNL1        0.0022
@<TRIPOS>BOND
     1    26    27    1
     2    27    25    1
     3     1    25    1
     4     1     2    1
     5     2     3   ar
     6     3     4   ar
     7     4     5   ar
     8     5    19    1
     9    19    20   ar
    10    20    21   ar
    11    21    22    1
    12    21    23   ar
    13    23    24   ar
    14     5     6   ar
    15     6     7    1
    16     7     8    1
    17     8     9    1
    18     9    10   am
    19    10    11    2
    20    10    12    1
    21    12    13   ar
    22    13    14   ar
    23    14    15   ar
    24    15    16    1
    25    15    17   ar
    26    17    18   ar
    27     9     1    1
    28    18    12   ar
    29     6     2   ar
    30    24    19   ar
@<TRIPOS>MOLECULE
*****
 27 30 0 0 0
SMALL
GASTEIGER

@<TRIPOS>ATOM
      1 C         143.4527  140.9787  162.6283 C.3     1  UNL1        0.1343
      2 C         143.4389  141.8394  161.3999 C.ar    1  UNL1        0.1615
      3 N         144.5443  142.4143  160.5648 N.ar    1  UNL1       -0.1316
      4 N         143.9216  143.2011  159.4498 N.ar    1  UNL1       -0.1268
      5 C         142.4314  143.1125  159.5958 C.ar    1  UNL1        0.1917
      6 N         142.1330  142.2708  160.8011 N.ar    1  UNL1       -0.2940
      7 C         140.8410  141.8416  161.4307 C.3     1  UNL1        0.1302
      8 C         140.8548  140.9809  162.6591 C.3     1  UNL1        0.1186
      9 N         142.1605  140.5495  163.2579 N.am    1  UNL1       -0.2688
     10 C         142.1743  139.6887  164.4864 C.2     1  UNL1        0.2494
     11 O         143.4802  139.2573  165.0852 O.2     1  UNL1       -0.2699
     12 C         140.8823  139.2595  165.1160 C.ar    1  UNL1        0.0537
     13 C         140.3114  140.0395  166.2630 C.ar    1  UNL1        0.0068
     14 C         139.0193  139.6102  166.8926 C.ar    1  UNL1        0.0298
     15 C         138.2982  138.4011  166.3751 C.ar    1  UNL1        0.1401
     16 F         137.0061  137.9718  167.0046 F       1  UNL1       -0.2042
     17 C         138.8691  137.6211  165.2280 C.ar    1  UNL1        0.0298
     18 C         140.1611  138.0503  164.5984 C.ar    1  UNL1        0.0068
     19 C         141.4176  143.7530  158.6948 C.ar    1  UNL1        0.1652
     20 N         141.3261  145.2142  158.3686 N.ar    1  UNL1       -0.2190
     21 C         140.1692  145.4090  157.4339 C.ar    1  UNL1        0.1481
     22 C         139.7155  146.7153  156.8528 C.3     1  UNL1        0.0744
     23 N         139.5456  144.0682  157.1825 N.ar    1  UNL1       -0.1929
     24 S         140.3171  143.0447  157.9617 S.2     1  UNL1        0.0369
     25 C         144.7585  140.5471  163.2272 C.3     1  UNL1        0.0276
     26 C         145.0287  142.7109  164.6396 C.3     1  UNL1        0.0001
     27 C         145.6393  141.5517  163.9091 C.3     1  UNL1        0.0022
@<TRIPOS>BOND
     1    26    27    1
     2    27    25    1
     3     1    25    1
     4     1     2    1
     5     2     3   ar
     6     3     4   ar
     7     4     5   ar
     8     5    19    1
     9    19    20   ar
    10    20    21   ar
    11    21    22    1
    12    21    23   ar
    13    23    24   ar
    14     5     6   ar
    15     6     7    1
    16     7     8    1
    17     8     9    1
    18     9    10   am
    19    10    11    2
    20    10    12    1
    21    12    13   ar
    22    13    14   ar
    23    14    15   ar
    24    15    16    1
    25    15    17   ar
    26    17    18   ar
    27     9     1    1
    28    18    12   ar
    29     6     2   ar
    30    24    19   ar
@<TRIPOS>MOLECULE
*****
 27 30 0 0 0
SMALL
GASTEIGER

@<TRIPOS>ATOM
      1 C         139.3972  140.3861  164.9171 C.3     1  UNL1        0.1343
      2 C         139.5666  140.5969  163.4417 C.ar    1  UNL1        0.1615
      3 N         138.8518  140.0186  162.2566 N.ar    1  UNL1       -0.1316
      4 N         139.4598  140.6049  161.0171 N.ar    1  UNL1       -0.1268
      5 C         140.5505  141.5456  161.4361 C.ar    1  UNL1        0.1917
      6 N         140.6165  141.5406  162.9346 N.ar    1  UNL1       -0.2940
      7 C         141.4970  142.2736  163.9029 C.3     1  UNL1        0.1302
      8 C         141.3275  142.0627  165.3783 C.3     1  UNL1        0.1186
      9 N         140.2777  141.1191  165.8854 N.am    1  UNL1       -0.2688
     10 C         140.1083  140.9083  167.3609 C.2     1  UNL1        0.2494
     11 O         139.0584  139.9646  167.8680 O.2     1  UNL1       -0.2699
     12 C         140.9888  141.6412  168.3292 C.ar    1  UNL1        0.0537
     13 C         140.4727  142.8572  169.0398 C.ar    1  UNL1        0.0068
     14 C         141.3533  143.5901  170.0081 C.ar    1  UNL1        0.0298
     15 C         142.7497  143.1070  170.2658 C.ar    1  UNL1        0.1401
     16 F         143.6302  143.8398  171.2341 F       1  UNL1       -0.2042
     17 C         143.2657  141.8909  169.5552 C.ar    1  UNL1        0.0298
     18 C         142.3853  141.1580  168.5869 C.ar    1  UNL1        0.0068
     19 C         141.4221  142.3499  160.5178 C.ar    1  UNL1        0.1652
     20 N         142.5194  141.8120  159.6480 N.ar    1  UNL1       -0.2190
     21 C         143.1249  142.9631  158.9007 C.ar    1  UNL1        0.1481
     22 C         144.2551  142.8795  157.9179 C.3     1  UNL1        0.0744
     23 N         142.4018  144.2124  159.3086 N.ar    1  UNL1       -0.1929
     24 S         141.3495  143.8334  160.3081 S.2     1  UNL1        0.0369
     25 C         138.3473  139.4424  165.4243 C.3     1  UNL1        0.0276
     26 C         139.5902  137.3394  164.5399 C.3     1  UNL1        0.0001
     27 C         138.6376  137.9733  165.5098 C.3     1  UNL1        0.0022
@<TRIPOS>BOND
     1    26    27    1
     2    27    25    1
     3     1    25    1
     4     1     2    1
     5     2     3   ar
     6     3     4   ar
     7     4     5   ar
     8     5    19    1
     9    19    20   ar
    10    20    21   ar
    11    21    22    1
    12    21    23   ar
    13    23    24   ar
    14     5     6   ar
    15     6     7    1
    16     7     8    1
    17     8     9    1
    18     9    10   am
    19    10    11    2
    20    10    12    1
    21    12    13   ar
    22    13    14   ar
    23    14    15   ar
    24    15    16    1
    25    15    17   ar
    26    17    18   ar
    27     9     1    1
    28    18    12   ar
    29     6     2   ar
    30    24    19   ar
@<TRIPOS>MOLECULE
*****
 27 30 0 0 0
SMALL
GASTEIGER

@<TRIPOS>ATOM
      1 C         142.0287  142.7243  163.2317 C.3     1  UNL1        0.1343
      2 C         141.8861  143.3950  161.8976 C.ar    1  UNL1        0.1615
      3 N         142.6672  144.4922  161.2372 N.ar    1  UNL1       -0.1316
      4 N         142.0573  144.7499  159.8913 N.ar    1  UNL1       -0.1268
      5 C         140.8993  143.8120  159.7198 C.ar    1  UNL1        0.1917
      6 N         140.7935  142.9746  160.9598 N.ar    1  UNL1       -0.2940
      7 C         139.8435  141.8836  161.3561 C.3     1  UNL1        0.1302
      8 C         139.9861  141.2129  162.6902 C.3     1  UNL1        0.1186
      9 N         141.0786  141.6333  163.6280 N.am    1  UNL1       -0.2688
     10 C         141.2212  140.9626  164.9622 C.2     1  UNL1        0.2494
     11 O         142.3138  141.3830  165.9000 O.2     1  UNL1       -0.2699
     12 C         140.2711  139.8716  165.3585 C.ar    1  UNL1        0.0537
     13 C         140.3993  138.5072  164.7484 C.ar    1  UNL1        0.0068
     14 C         139.4492  137.4162  165.1448 C.ar    1  UNL1        0.0298
     15 C         138.3711  137.6895  166.1511 C.ar    1  UNL1        0.1401
     16 F         137.4209  136.5986  166.5475 F       1  UNL1       -0.2042
     17 C         138.2429  139.0540  166.7612 C.ar    1  UNL1        0.0298
     18 C         139.1929  140.1450  166.3649 C.ar    1  UNL1        0.0068
     19 C         140.0042  143.7266  158.5191 C.ar    1  UNL1        0.1652
     20 N         138.8434  142.7918  158.3495 N.ar    1  UNL1       -0.2190
     21 C         138.2346  143.0485  157.0028 C.ar    1  UNL1        0.1481
     22 C         137.0494  142.3367  156.4210 C.3     1  UNL1        0.0744
     23 N         139.0192  144.1418  156.3401 N.ar    1  UNL1       -0.1929
     24 S         140.1128  144.5609  157.2773 S.2     1  UNL1        0.0369
     25 C         143.1213  143.1447  164.1696 C.3     1  UNL1        0.0276
     26 C         145.2908  141.7304  163.9625 C.3     1  UNL1        0.0001
     27 C         144.5568  143.0215  163.7520 C.3     1  UNL1        0.0022
@<TRIPOS>BOND
     1    26    27    1
     2    27    25    1
     3     1    25    1
     4     1     2    1
     5     2     3   ar
     6     3     4   ar
     7     4     5   ar
     8     5    19    1
     9    19    20   ar
    10    20    21   ar
    11    21    22    1
    12    21    23   ar
    13    23    24   ar
    14     5     6   ar
    15     6     7    1
    16     7     8    1
    17     8     9    1
    18     9    10   am
    19    10    11    2
    20    10    12    1
    21    12    13   ar
    22    13    14   ar
    23    14    15   ar
    24    15    16    1
    25    15    17   ar
    26    17    18   ar
    27     9     1    1
    28    18    12   ar
    29     6     2   ar
    30    24    19   ar
@<TRIPOS>MOLECULE
*****
 27 30 0 0 0
SMALL
GASTEIGER

@<TRIPOS>ATOM
      1 C         140.4588  142.4848  161.2032 C.3     1  UNL1        0.1343
      2 C         139.9331  142.8186  159.8386 C.ar    1  UNL1        0.1615
      3 N         140.3688  143.8230  158.8132 N.ar    1  UNL1       -0.1316
      4 N         139.4575  143.7006  157.6281 N.ar    1  UNL1       -0.1268
      5 C         138.4586  142.6206  157.9210 C.ar    1  UNL1        0.1917
      6 N         138.7525  142.0755  159.2872 N.ar    1  UNL1       -0.2940
      7 C         138.0977  140.9985  160.1003 C.3     1  UNL1        0.1302
      8 C         138.6235  140.6646  161.4649 C.3     1  UNL1        0.1186
      9 N         139.8040  141.4077  162.0163 N.am    1  UNL1       -0.2688
     10 C         140.3297  141.0738  163.3810 C.2     1  UNL1        0.2494
     11 O         141.5103  141.8170  163.9324 O.2     1  UNL1       -0.2699
     12 C         139.6749  139.9968  164.1942 C.ar    1  UNL1        0.0537
     13 C         138.6468  140.3561  165.2256 C.ar    1  UNL1        0.0068
     14 C         137.9920  139.2789  166.0388 C.ar    1  UNL1        0.0298
     15 C         138.3654  137.8427  165.8205 C.ar    1  UNL1        0.1401
     16 F         137.7106  136.7656  166.6336 F       1  UNL1       -0.2042
     17 C         139.3935  137.4834  164.7890 C.ar    1  UNL1        0.0298
     18 C         140.0483  138.5605  163.9758 C.ar    1  UNL1        0.0068
     19 C         137.3589  142.1656  157.0080 C.ar    1  UNL1        0.1652
     20 N         136.6394  140.8514  157.0809 N.ar    1  UNL1       -0.2190
     21 C         135.6215  140.8185  155.9797 C.ar    1  UNL1        0.1481
     22 C         134.6787  139.6899  155.6840 C.3     1  UNL1        0.0744
     23 N         135.7117  142.1123  155.2262 N.ar    1  UNL1       -0.1929
     24 S         136.7855  142.9448  155.8617 S.2     1  UNL1        0.0369
     25 C         141.6394  143.2279  161.7547 C.3     1  UNL1        0.0276
     26 C         141.7979  145.2461  163.3830 C.3     1  UNL1        0.0001
     27 C         141.5454  144.7034  162.0076 C.3     1  UNL1        0.0022
@<TRIPOS>BOND
     1    26    27    1
     2    27    25    1
     3     1    25    1
     4     1     2    1
     5     2     3   ar
     6     3     4   ar
     7     4     5   ar
     8     5    19    1
     9    19    20   ar
    10    20    21   ar
    11    21    22    1
    12    21    23   ar
    13    23    24   ar
    14     5     6   ar
    15     6     7    1
    16     7     8    1
    17     8     9    1
    18     9    10   am
    19    10    11    2
    20    10    12    1
    21    12    13   ar
    22    13    14   ar
    23    14    15   ar
    24    15    16    1
    25    15    17   ar
    26    17    18   ar
    27     9     1    1
    28    18    12   ar
    29     6     2   ar
    30    24    19   ar
@<TRIPOS>MOLECULE
*****
 27 30 0 0 0
SMALL
GASTEIGER

@<TRIPOS>ATOM
      1 C         142.8326  140.9423  160.9820 C.3     1  UNL1        0.1343
      2 C         143.1254  140.2708  159.6731 C.ar    1  UNL1        0.1615
      3 N         144.0967  140.5911  158.5759 N.ar    1  UNL1       -0.1316
      4 N         143.9399  139.5564  157.5013 N.ar    1  UNL1       -0.1268
      5 C         142.8716  138.5966  157.9344 C.ar    1  UNL1        0.1917
      6 N         142.3682  139.0381  159.2766 N.ar    1  UNL1       -0.2940
      7 C         141.3182  138.4770  160.1891 C.3     1  UNL1        0.1302
      8 C         141.0254  139.1485  161.4980 C.3     1  UNL1        0.1186
      9 N         141.7825  140.3811  161.8945 N.am    1  UNL1       -0.2688
     10 C         141.4897  141.0527  163.2035 C.2     1  UNL1        0.2494
     11 O         142.2469  142.2854  163.5999 O.2     1  UNL1       -0.2699
     12 C         140.4396  140.4916  164.1159 C.ar    1  UNL1        0.0537
     13 C         140.7859  139.3838  165.0661 C.ar    1  UNL1        0.0068
     14 C         139.7358  138.8227  165.9785 C.ar    1  UNL1        0.0298
     15 C         138.3396  139.3693  165.9408 C.ar    1  UNL1        0.1401
     16 F         137.2895  138.8083  166.8532 F       1  UNL1       -0.2042
     17 C         137.9933  140.4772  164.9906 C.ar    1  UNL1        0.0298
     18 C         139.0433  141.0383  164.0781 C.ar    1  UNL1        0.0068
     19 C         142.3910  137.4045  157.1610 C.ar    1  UNL1        0.1652
     20 N         143.0147  136.0404  157.1660 N.ar    1  UNL1       -0.2190
     21 C         142.2116  135.1602  156.2548 C.ar    1  UNL1        0.1481
     22 C         142.4812  133.7137  155.9631 C.3     1  UNL1        0.0744
     23 N         141.0915  135.9803  155.6867 N.ar    1  UNL1       -0.1929
     24 S         141.2024  137.3674  156.2467 S.2     1  UNL1        0.0369
     25 C         143.5898  142.1750  161.3786 C.3     1  UNL1        0.0276
     26 C         145.5059  141.7176  163.0723 C.3     1  UNL1        0.0001
     27 C         145.0543  142.0877  161.6906 C.3     1  UNL1        0.0022
@<TRIPOS>BOND
     1    26    27    1
     2    27    25    1
     3     1    25    1
     4     1     2    1
     5     2     3   ar
     6     3     4   ar
     7     4     5   ar
     8     5    19    1
     9    19    20   ar
    10    20    21   ar
    11    21    22    1
    12    21    23   ar
    13    23    24   ar
    14     5     6   ar
    15     6     7    1
    16     7     8    1
    17     8     9    1
    18     9    10   am
    19    10    11    2
    20    10    12    1
    21    12    13   ar
    22    13    14   ar
    23    14    15   ar
    24    15    16    1
    25    15    17   ar
    26    17    18   ar
    27     9     1    1
    28    18    12   ar
    29     6     2   ar
    30    24    19   ar
@<TRIPOS>MOLECULE
*****
 27 30 0 0 0
SMALL
GASTEIGER

@<TRIPOS>ATOM
      1 C         142.9313  142.3558  163.3665 C.3     1  UNL1        0.1343
      2 C         143.4197  142.1421  161.9644 C.ar    1  UNL1        0.1615
      3 N         144.4722  142.8360  161.1516 N.ar    1  UNL1       -0.1316
      4 N         144.5213  142.1828  159.8022 N.ar    1  UNL1       -0.1268
      5 C         143.4992  141.0852  159.7810 C.ar    1  UNL1        0.1917
      6 N         142.8183  141.0600  161.1174 N.ar    1  UNL1       -0.2940
      7 C         141.7285  140.1916  161.6724 C.3     1  UNL1        0.1302
      8 C         141.2400  140.4053  163.0744 C.3     1  UNL1        0.1186
      9 N         141.8413  141.4873  163.9214 N.am    1  UNL1       -0.2688
     10 C         141.3528  141.7009  165.3236 C.2     1  UNL1        0.2494
     11 O         141.9542  142.7830  166.1706 O.2     1  UNL1       -0.2699
     12 C         140.2630  140.8325  165.8786 C.ar    1  UNL1        0.0537
     13 C         140.2776  140.4448  167.3275 C.ar    1  UNL1        0.0068
     14 C         139.1876  139.5763  167.8824 C.ar    1  UNL1        0.0298
     15 C         138.0832  139.0957  166.9885 C.ar    1  UNL1        0.1401
     16 F         136.9933  138.2272  167.5434 F       1  UNL1       -0.2042
     17 C         138.0687  139.4834  165.5395 C.ar    1  UNL1        0.0298
     18 C         139.1585  140.3519  164.9845 C.ar    1  UNL1        0.0068
     19 C         143.2089  140.1730  158.6263 C.ar    1  UNL1        0.1652
     20 N         143.2840  138.6750  158.6455 N.ar    1  UNL1       -0.2190
     21 C         142.9140  138.1748  157.2806 C.ar    1  UNL1        0.1481
     22 C         142.8577  136.7380  156.8535 C.3     1  UNL1        0.0744
     23 N         142.6102  139.3636  156.4178 N.ar    1  UNL1       -0.1929
     24 S         142.7924  140.5985  157.2495 S.2     1  UNL1        0.0369
     25 C         143.5326  143.4378  164.2136 C.3     1  UNL1        0.0276
     26 C         141.9420  145.4136  163.6516 C.3     1  UNL1        0.0001
     27 C         143.3295  144.8779  163.8464 C.3     1  UNL1        0.0022
@<TRIPOS>BOND
     1    26    27    1
     2    27    25    1
     3     1    25    1
     4     1     2    1
     5     2     3   ar
     6     3     4   ar
     7     4     5   ar
     8     5    19    1
     9    19    20   ar
    10    20    21   ar
    11    21    22    1
    12    21    23   ar
    13    23    24   ar
    14     5     6   ar
    15     6     7    1
    16     7     8    1
    17     8     9    1
    18     9    10   am
    19    10    11    2
    20    10    12    1
    21    12    13   ar
    22    13    14   ar
    23    14    15   ar
    24    15    16    1
    25    15    17   ar
    26    17    18   ar
    27     9     1    1
    28    18    12   ar
    29     6     2   ar
    30    24    19   ar
@<TRIPOS>MOLECULE
*****
 27 30 0 0 0
SMALL
GASTEIGER

@<TRIPOS>ATOM
      1 C         141.0219  141.3865  160.8232 C.3     1  UNL1        0.1343
      2 C         140.4762  141.7436  159.4724 C.ar    1  UNL1        0.1615
      3 N         141.0831  142.4586  158.3017 N.ar    1  UNL1       -0.1316
      4 N         140.0527  142.5243  157.2137 N.ar    1  UNL1       -0.1268
      5 C         138.8088  141.8500  157.7120 C.ar    1  UNL1        0.1917
      6 N         139.0706  141.3675  159.1079 N.ar    1  UNL1       -0.2940
      7 C         138.2107  140.6342  160.0942 C.3     1  UNL1        0.1302
      8 C         138.7564  140.2771  161.4450 C.3     1  UNL1        0.1186
      9 N         140.1619  140.6532  161.8095 N.am    1  UNL1       -0.2688
     10 C         140.7075  140.2961  163.1604 C.2     1  UNL1        0.2494
     11 O         142.1131  140.6723  163.5249 O.2     1  UNL1       -0.2699
     12 C         139.8476  139.5628  164.1467 C.ar    1  UNL1        0.0537
     13 C         139.8287  138.0630  164.1557 C.ar    1  UNL1        0.0068
     14 C         138.9687  137.3297  165.1421 C.ar    1  UNL1        0.0298
     15 C         138.1278  138.0963  166.1194 C.ar    1  UNL1        0.1401
     16 F         137.2678  137.3631  167.1057 F       1  UNL1       -0.2042
     17 C         138.1467  139.5962  166.1104 C.ar    1  UNL1        0.0298
     18 C         139.0067  140.3295  165.1240 C.ar    1  UNL1        0.0068
     19 C         137.5282  141.6868  156.9483 C.ar    1  UNL1        0.1652
     20 N         136.5651  140.5438  157.0757 N.ar    1  UNL1       -0.2190
     21 C         135.4274  140.7886  156.1293 C.ar    1  UNL1        0.1481
     22 C         134.2386  139.8959  155.9302 C.3     1  UNL1        0.0744
     23 N         135.6873  142.0828  155.4169 N.ar    1  UNL1       -0.1929
     24 S         136.9856  142.6379  155.9231 S.2     1  UNL1        0.0369
     25 C         142.4275  141.7627  161.1878 C.3     1  UNL1        0.0276
     26 C         143.5679  139.6182  160.2657 C.3     1  UNL1        0.0001
     27 C         143.5837  141.0997  160.4997 C.3     1  UNL1        0.0022
@<TRIPOS>BOND
     1    26    27    1
     2    27    25    1
     3     1    25    1
     4     1     2    1
     5     2     3   ar
     6     3     4   ar
     7     4     5   ar
     8     5    19    1
     9    19    20   ar
    10    20    21   ar
    11    21    22    1
    12    21    23   ar
    13    23    24   ar
    14     5     6   ar
    15     6     7    1
    16     7     8    1
    17     8     9    1
    18     9    10   am
    19    10    11    2
    20    10    12    1
    21    12    13   ar
    22    13    14   ar
    23    14    15   ar
    24    15    16    1
    25    15    17   ar
    26    17    18   ar
    27     9     1    1
    28    18    12   ar
    29     6     2   ar
    30    24    19   ar
@<TRIPOS>MOLECULE
*****
 27 30 0 0 0
SMALL
GASTEIGER

@<TRIPOS>ATOM
      1 C         139.9387  143.1512  158.2896 C.3     1  UNL1        0.1343
      2 C         139.5018  143.9506  157.0980 C.ar    1  UNL1        0.1615
      3 N         138.7284  143.5777  155.8681 N.ar    1  UNL1       -0.1316
      4 N         138.5925  144.8049  155.0162 N.ar    1  UNL1       -0.1268
      5 C         139.2819  145.9362  155.7197 C.ar    1  UNL1        0.1917
      6 N         139.8439  145.4082  157.0064 N.ar    1  UNL1       -0.2940
      7 C         140.6229  146.0664  158.1063 C.3     1  UNL1        0.1302
      8 C         141.0598  145.2669  159.2979 C.3     1  UNL1        0.1186
      9 N         140.7178  143.8094  159.3896 N.am    1  UNL1       -0.2688
     10 C         141.1547  143.0099  160.5813 C.2     1  UNL1        0.2494
     11 O         140.8127  141.5523  160.6729 O.2     1  UNL1       -0.2699
     12 C         141.9338  143.6681  161.6813 C.ar    1  UNL1        0.0537
     13 C         141.2138  144.3823  162.7865 C.ar    1  UNL1        0.0068
     14 C         141.9930  145.0405  163.8865 C.ar    1  UNL1        0.0298
     15 C         143.4918  144.9844  163.8812 C.ar    1  UNL1        0.1401
     16 F         144.2710  145.6425  164.9811 F       1  UNL1       -0.2042
     17 C         144.2118  144.2701  162.7759 C.ar    1  UNL1        0.0298
     18 C         143.4327  143.6119  161.6759 C.ar    1  UNL1        0.0068
     19 C         139.3902  147.3476  155.2237 C.ar    1  UNL1        0.1652
     20 N         138.7267  148.5486  155.8298 N.ar    1  UNL1       -0.2190
     21 C         139.1076  149.7491  155.0151 C.ar    1  UNL1        0.1481
     22 C         138.6669  151.1608  155.2660 C.3     1  UNL1        0.0744
     23 N         140.0065  149.2901  153.9055 N.ar    1  UNL1       -0.1929
     24 S         140.1811  147.8059  154.0344 S.2     1  UNL1        0.0369
     25 C         139.5967  141.6935  158.3813 C.3     1  UNL1        0.0276
     26 C         140.5921  139.3468  157.8798 C.3     1  UNL1        0.0001
     27 C         140.2023  140.7188  157.4154 C.3     1  UNL1        0.0022
@<TRIPOS>BOND
     1    26    27    1
     2    27    25    1
     3     1    25    1
     4     1     2    1
     5     2     3   ar
     6     3     4   ar
     7     4     5   ar
     8     5    19    1
     9    19    20   ar
    10    20    21   ar
    11    21    22    1
    12    21    23   ar
    13    23    24   ar
    14     5     6   ar
    15     6     7    1
    16     7     8    1
    17     8     9    1
    18     9    10   am
    19    10    11    2
    20    10    12    1
    21    12    13   ar
    22    13    14   ar
    23    14    15   ar
    24    15    16    1
    25    15    17   ar
    26    17    18   ar
    27     9     1    1
    28    18    12   ar
    29     6     2   ar
    30    24    19   ar
