@<TRIPOS>MOLECULE
*****
 24 26 0 0 0
SMALL
GASTEIGER

@<TRIPOS>ATOM
      1 C         137.6703  140.0856  162.5579 C.3     1  UNL1        0.1111
      2 C         137.5358  139.3717  161.2456 C.3     1  UNL1        0.1598
      3 O         138.4325  138.1697  161.2777 O.3     1  UNL1       -0.3519
      4 C         139.1213  138.1407  162.6099 C.3     1  UNL1        0.1480
      5 C         138.6502  139.3249  163.4011 C.3     1  UNL1        0.0704
      6 C         139.0831  139.6850  164.7915 C.ar    1  UNL1       -0.0186
      7 C         140.2717  140.5758  164.9999 C.ar    1  UNL1       -0.0041
      8 C         140.7045  140.9358  166.3902 C.ar    1  UNL1        0.0002
      9 C         139.9487  140.4050  167.5721 C.ar    1  UNL1        0.0060
     10 C         138.7600  139.5142  167.3637 C.ar    1  UNL1        0.0002
     11 C         138.3272  139.1542  165.9734 C.ar    1  UNL1       -0.0041
     12 C         140.3815  140.7651  168.9625 C.ar    1  UNL1        0.0295
     13 C         139.9584  141.9824  169.7302 C.ar    1  UNL1        0.0070
     14 C         140.6289  141.9408  171.0714 C.ar    1  UNL1        0.0075
     15 C         141.4663  140.6978  171.1325 C.ar    1  UNL1        0.0354
     16 S         141.3135  139.9712  169.8292 S.2     1  UNL1       -0.0864
     17 N         136.9512  141.3401  162.9569 N.3     1  UNL1       -0.1819
     18 H         136.2495  141.5185  162.2384 H       1  UNL1        0.1485
     19 S         137.7164  142.6170  163.1413 S.O2    1  UNL1        0.0391
     20 O         137.4559  142.5598  164.6175 O.2     1  UNL1       -0.1576
     21 O         137.9769  142.6741  161.6653 O.2     1  UNL1       -0.1576
     22 C         139.1932  144.5167  162.1616 C.3     1  UNL1        0.0270
     23 C         138.4815  143.8939  163.3259 C.3     1  UNL1        0.1457
     24 C         138.5350  144.5479  164.6747 C.3     1  UNL1        0.0270
@<TRIPOS>BOND
     1    22    23    1
     2    23    24    1
     3    23    19    1
     4    19    20    2
     5    19    21    2
     6    19    17    1
     7     1    17    1
     8     1     2    1
     9     2     3    1
    10     3     4    1
    11     4     5    1
    12     5     6    1
    13     6     7   ar
    14     7     8   ar
    15     8     9   ar
    16     9    12    1
    17    12    13   ar
    18    13    14   ar
    19    14    15   ar
    20    15    16   ar
    21     9    10   ar
    22    10    11   ar
    23     5     1    1
    24    11     6   ar
    25    16    12   ar
    26    17    18    1
@<TRIPOS>MOLECULE
*****
 24 26 0 0 0
SMALL
GASTEIGER

@<TRIPOS>ATOM
      1 C         142.8375  138.1207  162.0293 C.3     1  UNL1        0.1111
      2 C         143.5133  138.2456  160.6960 C.3     1  UNL1        0.1598
      3 O         144.4570  139.4097  160.7618 O.3     1  UNL1       -0.3519
      4 C         144.3645  140.0042  162.1359 C.3     1  UNL1        0.1480
      5 C         143.3636  139.2075  162.9192 C.3     1  UNL1        0.0704
      6 C         142.9597  139.4544  164.3426 C.ar    1  UNL1       -0.0186
      7 C         141.9766  140.5403  164.6657 C.ar    1  UNL1       -0.0041
      8 C         141.5728  140.7872  166.0890 C.ar    1  UNL1        0.0002
      9 C         142.1520  139.9481  167.1893 C.ar    1  UNL1        0.0060
     10 C         143.1350  138.8623  166.8662 C.ar    1  UNL1        0.0002
     11 C         143.5389  138.6154  165.4429 C.ar    1  UNL1       -0.0041
     12 C         141.7481  140.1950  168.6127 C.ar    1  UNL1        0.0295
     13 C         140.3689  140.0302  169.1790 C.ar    1  UNL1        0.0070
     14 C         140.4208  140.3834  170.6359 C.ar    1  UNL1        0.0075
     15 C         141.8321  140.7666  170.9699 C.ar    1  UNL1        0.0354
     16 S         142.6523  140.6501  169.7195 S.2     1  UNL1       -0.0864
     17 N         141.8152  137.0899  162.4064 N.3     1  UNL1       -0.1819
     18 H         141.6775  136.4982  161.5870 H       1  UNL1        0.1485
     19 S         140.4528  137.5176  162.8655 S.O2    1  UNL1        0.0391
     20 O         140.7180  136.9154  164.2135 O.2     1  UNL1       -0.1576
     21 O         140.1875  138.1197  161.5176 O.2     1  UNL1       -0.1576
     22 C         138.8007  138.0793  164.7904 C.3     1  UNL1        0.0270
     23 C         139.0903  137.9452  163.3247 C.3     1  UNL1        0.1457
     24 C         138.0175  138.2389  162.3183 C.3     1  UNL1        0.0270
@<TRIPOS>BOND
     1    22    23    1
     2    23    24    1
     3    23    19    1
     4    19    20    2
     5    19    21    2
     6    19    17    1
     7     1    17    1
     8     1     2    1
     9     2     3    1
    10     3     4    1
    11     4     5    1
    12     5     6    1
    13     6     7   ar
    14     7     8   ar
    15     8     9   ar
    16     9    12    1
    17    12    13   ar
    18    13    14   ar
    19    14    15   ar
    20    15    16   ar
    21     9    10   ar
    22    10    11   ar
    23     5     1    1
    24    11     6   ar
    25    16    12   ar
    26    17    18    1
@<TRIPOS>MOLECULE
*****
 24 26 0 0 0
SMALL
GASTEIGER

@<TRIPOS>ATOM
      1 C         141.4466  140.8850  169.3185 C.3     1  UNL1        0.1111
      2 C         141.4267  141.0561  170.8086 C.3     1  UNL1        0.1598
      3 O         140.0003  140.9739  171.2656 O.3     1  UNL1       -0.3519
      4 C         139.1388  140.7521  170.0580 C.3     1  UNL1        0.1480
      5 C         140.0326  140.6972  168.8546 C.3     1  UNL1        0.0704
      6 C         139.5900  140.4906  167.4363 C.ar    1  UNL1       -0.0186
      7 C         139.7879  141.5786  166.4229 C.ar    1  UNL1       -0.0041
      8 C         139.3453  141.3720  165.0047 C.ar    1  UNL1        0.0002
      9 C         138.7049  140.0774  164.5998 C.ar    1  UNL1        0.0060
     10 C         138.5070  138.9894  165.6132 C.ar    1  UNL1        0.0002
     11 C         138.9496  139.1960  167.0315 C.ar    1  UNL1       -0.0041
     12 C         138.2623  139.8709  163.1815 C.ar    1  UNL1        0.0295
     13 C         138.1921  138.5564  162.4624 C.ar    1  UNL1        0.0070
     14 C         137.6987  138.8156  161.0698 C.ar    1  UNL1        0.0075
     15 C         137.4639  140.2904  160.9283 C.ar    1  UNL1        0.0354
     16 S         137.8123  140.9426  162.2334 S.2     1  UNL1       -0.0864
     17 N         142.6664  140.8994  168.4456 N.3     1  UNL1       -0.1819
     18 H         142.6172  141.7501  167.8850 H       1  UNL1        0.1485
     19 S         142.9213  139.7681  167.4944 S.O2    1  UNL1        0.0391
     20 O         142.9305  140.7347  166.3473 O.2     1  UNL1       -0.1576
     21 O         142.9121  138.8015  168.6413 O.2     1  UNL1       -0.1576
     22 C         142.2974  138.4551  165.3410 C.3     1  UNL1        0.0270
     23 C         143.1763  138.6368  166.5429 C.3     1  UNL1        0.1457
     24 C         144.3101  137.6872  166.7934 C.3     1  UNL1        0.0270
@<TRIPOS>BOND
     1    22    23    1
     2    23    24    1
     3    23    19    1
     4    19    20    2
     5    19    21    2
     6    19    17    1
     7     1    17    1
     8     1     2    1
     9     2     3    1
    10     3     4    1
    11     4     5    1
    12     5     6    1
    13     6     7   ar
    14     7     8   ar
    15     8     9   ar
    16     9    12    1
    17    12    13   ar
    18    13    14   ar
    19    14    15   ar
    20    15    16   ar
    21     9    10   ar
    22    10    11   ar
    23     5     1    1
    24    11     6   ar
    25    16    12   ar
    26    17    18    1
@<TRIPOS>MOLECULE
*****
 24 26 0 0 0
SMALL
GASTEIGER

@<TRIPOS>ATOM
      1 C         141.4301  140.8336  169.3270 C.3     1  UNL1        0.1111
      2 C         141.3908  140.9597  170.8212 C.3     1  UNL1        0.1598
      3 O         139.9564  140.8906  171.2547 O.3     1  UNL1       -0.3519
      4 C         139.1093  140.7219  170.0284 C.3     1  UNL1        0.1480
      5 C         140.0200  140.6867  168.8370 C.3     1  UNL1        0.0704
      6 C         139.5952  140.5317  167.4067 C.ar    1  UNL1       -0.0186
      7 C         138.9825  139.2440  166.9416 C.ar    1  UNL1       -0.0041
      8 C         138.5577  139.0891  165.5114 C.ar    1  UNL1        0.0002
      9 C         138.7456  140.2220  164.5463 C.ar    1  UNL1        0.0060
     10 C         139.3583  141.5097  165.0114 C.ar    1  UNL1        0.0002
     11 C         139.7831  141.6646  166.4417 C.ar    1  UNL1       -0.0041
     12 C         138.3208  140.0670  163.1161 C.ar    1  UNL1        0.0295
     13 C         138.0504  138.7703  162.4122 C.ar    1  UNL1        0.0070
     14 C         137.6543  139.0834  160.9997 C.ar    1  UNL1        0.0075
     15 C         137.6799  140.5736  160.8307 C.ar    1  UNL1        0.0354
     16 S         138.0919  141.1815  162.1386 S.2     1  UNL1       -0.0864
     17 N         142.6629  140.8514  168.4728 N.3     1  UNL1       -0.1819
     18 H         142.6267  141.7087  167.9213 H       1  UNL1        0.1485
     19 S         142.9264  139.7297  167.5126 S.O2    1  UNL1        0.0391
     20 O         142.9619  138.7593  168.6559 O.2     1  UNL1       -0.1576
     21 O         142.8910  140.6999  166.3693 O.2     1  UNL1       -0.1576
     22 C         144.2630  137.6027  166.8496 C.3     1  UNL1        0.0270
     23 C         143.1900  138.6078  166.5524 C.3     1  UNL1        0.1457
     24 C         142.3804  138.4911  165.2950 C.3     1  UNL1        0.0270
@<TRIPOS>BOND
     1    22    23    1
     2    23    24    1
     3    23    19    1
     4    19    20    2
     5    19    21    2
     6    19    17    1
     7     1    17    1
     8     1     2    1
     9     2     3    1
    10     3     4    1
    11     4     5    1
    12     5     6    1
    13     6     7   ar
    14     7     8   ar
    15     8     9   ar
    16     9    12    1
    17    12    13   ar
    18    13    14   ar
    19    14    15   ar
    20    15    16   ar
    21     9    10   ar
    22    10    11   ar
    23     5     1    1
    24    11     6   ar
    25    16    12   ar
    26    17    18    1
@<TRIPOS>MOLECULE
*****
 24 26 0 0 0
SMALL
GASTEIGER

@<TRIPOS>ATOM
      1 C         139.4456  138.1938  162.3290 C.3     1  UNL1        0.1111
      2 C         138.7872  138.1451  160.9821 C.3     1  UNL1        0.1598
      3 O         137.7235  139.2023  160.9476 O.3     1  UNL1       -0.3519
      4 C         137.7247  139.9044  162.2731 C.3     1  UNL1        0.1480
      5 C         138.7890  139.2811  163.1269 C.3     1  UNL1        0.0704
      6 C         139.1357  139.6759  164.5319 C.ar    1  UNL1       -0.0186
      7 C         138.5474  138.9242  165.6890 C.ar    1  UNL1       -0.0041
      8 C         138.8942  139.3190  167.0939 C.ar    1  UNL1        0.0002
      9 C         139.8292  140.4654  167.3418 C.ar    1  UNL1        0.0060
     10 C         140.4175  141.2171  166.1847 C.ar    1  UNL1        0.0002
     11 C         140.0707  140.8223  164.7797 C.ar    1  UNL1       -0.0041
     12 C         140.1759  140.8602  168.7468 C.ar    1  UNL1        0.0295
     13 C         140.4091  139.9224  169.8940 C.ar    1  UNL1        0.0070
     14 C         140.7277  140.7446  171.1075 C.ar    1  UNL1        0.0075
     15 C         140.6914  142.1906  170.7102 C.ar    1  UNL1        0.0354
     16 S         140.3504  142.2620  169.2512 S.2     1  UNL1       -0.0864
     17 N         140.5643  137.3104  162.7960 N.3     1  UNL1       -0.1819
     18 H         140.1552  136.6322  163.4387 H       1  UNL1        0.1485
     19 S         141.7503  137.9074  163.4937 S.O2    1  UNL1        0.0391
     20 O         142.0596  138.7208  162.2719 O.2     1  UNL1       -0.1576
     21 O         141.4410  137.0941  164.7154 O.2     1  UNL1       -0.1576
     22 C         144.0399  139.1310  163.3915 C.3     1  UNL1        0.0270
     23 C         142.9363  138.5045  164.1913 C.3     1  UNL1        0.1457
     24 C         143.0189  138.4750  165.6887 C.3     1  UNL1        0.0270
@<TRIPOS>BOND
     1    22    23    1
     2    23    24    1
     3    23    19    1
     4    19    20    2
     5    19    21    2
     6    19    17    1
     7     1    17    1
     8     1     2    1
     9     2     3    1
    10     3     4    1
    11     4     5    1
    12     5     6    1
    13     6     7   ar
    14     7     8   ar
    15     8     9   ar
    16     9    12    1
    17    12    13   ar
    18    13    14   ar
    19    14    15   ar
    20    15    16   ar
    21     9    10   ar
    22    10    11   ar
    23     5     1    1
    24    11     6   ar
    25    16    12   ar
    26    17    18    1
@<TRIPOS>MOLECULE
*****
 24 26 0 0 0
SMALL
GASTEIGER

@<TRIPOS>ATOM
      1 C         143.5343  138.7011  162.3259 C.3     1  UNL1        0.1111
      2 C         143.1596  137.8945  161.1181 C.3     1  UNL1        0.1598
      3 O         141.8214  137.2677  161.3761 O.3     1  UNL1       -0.3519
      4 C         141.3692  137.6870  162.7434 C.3     1  UNL1        0.1480
      5 C         142.4278  138.5729  163.3305 C.3     1  UNL1        0.0704
      6 C         142.3869  139.2174  164.6844 C.ar    1  UNL1       -0.0186
      7 C         143.0356  138.5422  165.8563 C.ar    1  UNL1       -0.0041
      8 C         142.9947  139.1868  167.2101 C.ar    1  UNL1        0.0002
      9 C         142.3053  140.5064  167.3920 C.ar    1  UNL1        0.0060
     10 C         141.6566  141.1816  166.2201 C.ar    1  UNL1        0.0002
     11 C         141.6975  140.5371  164.8663 C.ar    1  UNL1       -0.0041
     12 C         142.2644  141.1509  168.7460 C.ar    1  UNL1        0.0295
     13 C         142.9703  142.4135  169.1430 C.ar    1  UNL1        0.0070
     14 C         142.6527  142.6890  170.5829 C.ar    1  UNL1        0.0075
     15 C         141.7506  141.5965  171.0757 C.ar    1  UNL1        0.0354
     16 S         141.5107  140.6460  169.9404 S.2     1  UNL1       -0.0864
     17 N         144.7943  139.4963  162.4989 N.3     1  UNL1       -0.1819
     18 H         145.3400  139.0296  163.2233 H       1  UNL1        0.1485
     19 S         144.7205  140.9456  162.8785 S.O2    1  UNL1        0.0391
     20 O         143.9700  141.2388  161.6132 O.2     1  UNL1       -0.1576
     21 O         145.4710  140.6524  164.1437 O.2     1  UNL1       -0.1576
     22 C         144.5064  143.4426  162.1939 C.3     1  UNL1        0.0270
     23 C         144.6467  142.3949  163.2581 C.3     1  UNL1        0.1457
     24 C         144.7130  142.7964  164.7018 C.3     1  UNL1        0.0270
@<TRIPOS>BOND
     1    22    23    1
     2    23    24    1
     3    23    19    1
     4    19    20    2
     5    19    21    2
     6    19    17    1
     7     1    17    1
     8     1     2    1
     9     2     3    1
    10     3     4    1
    11     4     5    1
    12     5     6    1
    13     6     7   ar
    14     7     8   ar
    15     8     9   ar
    16     9    12    1
    17    12    13   ar
    18    13    14   ar
    19    14    15   ar
    20    15    16   ar
    21     9    10   ar
    22    10    11   ar
    23     5     1    1
    24    11     6   ar
    25    16    12   ar
    26    17    18    1
@<TRIPOS>MOLECULE
*****
 24 26 0 0 0
SMALL
GASTEIGER

@<TRIPOS>ATOM
      1 C         140.6188  141.2343  169.1840 C.3     1  UNL1        0.1111
      2 C         140.5253  141.4180  170.6698 C.3     1  UNL1        0.1598
      3 O         140.5178  142.8906  170.9552 O.3     1  UNL1       -0.3519
      4 C         140.6068  143.6170  169.6459 C.3     1  UNL1        0.1480
      5 C         140.6691  142.5933  168.5512 C.3     1  UNL1        0.0704
      6 C         140.7650  142.8787  167.0817 C.ar    1  UNL1       -0.0186
      7 C         142.0209  142.5437  166.3330 C.ar    1  UNL1       -0.0041
      8 C         142.1168  142.8291  164.8636 C.ar    1  UNL1        0.0002
      9 C         140.9568  143.4495  164.1428 C.ar    1  UNL1        0.0060
     10 C         139.7009  143.7845  164.8914 C.ar    1  UNL1        0.0002
     11 C         139.6051  143.4991  166.3609 C.ar    1  UNL1       -0.0041
     12 C         141.0527  143.7348  162.6732 C.ar    1  UNL1        0.0295
     13 C         139.9344  144.2068  161.7919 C.ar    1  UNL1        0.0070
     14 C         140.4742  144.3620  160.4011 C.ar    1  UNL1        0.0075
     15 C         141.9262  143.9860  160.4228 C.ar    1  UNL1        0.0354
     16 S         142.2837  143.5984  161.8271 S.2     1  UNL1       -0.0864
     17 N         140.6555  139.9220  168.4585 N.3     1  UNL1       -0.1819
     18 H         141.5109  139.9164  167.9030 H       1  UNL1        0.1485
     19 S         139.5364  139.5446  167.5337 S.O2    1  UNL1        0.0391
     20 O         140.5010  139.4967  166.3860 O.2     1  UNL1       -0.1576
     21 O         138.5718  139.5924  168.6814 O.2     1  UNL1       -0.1576
     22 C         137.4881  138.0476  166.9736 C.3     1  UNL1        0.0270
     23 C         138.4174  139.1672  166.6089 C.3     1  UNL1        0.1457
     24 C         138.2276  139.9093  165.3192 C.3     1  UNL1        0.0270
@<TRIPOS>BOND
     1    22    23    1
     2    23    24    1
     3    23    19    1
     4    19    20    2
     5    19    21    2
     6    19    17    1
     7     1    17    1
     8     1     2    1
     9     2     3    1
    10     3     4    1
    11     4     5    1
    12     5     6    1
    13     6     7   ar
    14     7     8   ar
    15     8     9   ar
    16     9    12    1
    17    12    13   ar
    18    13    14   ar
    19    14    15   ar
    20    15    16   ar
    21     9    10   ar
    22    10    11   ar
    23     5     1    1
    24    11     6   ar
    25    16    12   ar
    26    17    18    1
@<TRIPOS>MOLECULE
*****
 24 26 0 0 0
SMALL
GASTEIGER

@<TRIPOS>ATOM
      1 C         143.5771  143.2717  161.9392 C.3     1  UNL1        0.1111
      2 C         144.2699  142.8604  160.6739 C.3     1  UNL1        0.1598
      3 O         144.4427  141.3707  160.7032 O.3     1  UNL1       -0.3519
      4 C         143.8566  140.8612  161.9865 C.3     1  UNL1        0.1480
      5 C         143.3216  142.0361  162.7504 C.3     1  UNL1        0.0704
      6 C         142.6493  141.9844  164.0903 C.ar    1  UNL1       -0.0186
      7 C         141.2074  141.5833  164.1910 C.ar    1  UNL1       -0.0041
      8 C         140.5351  141.5317  165.5308 C.ar    1  UNL1        0.0002
      9 C         141.3047  141.8811  166.7701 C.ar    1  UNL1        0.0060
     10 C         142.7465  142.2822  166.6694 C.ar    1  UNL1        0.0002
     11 C         143.4188  142.3339  165.3296 C.ar    1  UNL1       -0.0041
     12 C         140.6323  141.8295  168.1100 C.ar    1  UNL1        0.0295
     13 C         139.8377  140.6793  168.6539 C.ar    1  UNL1        0.0070
     14 C         139.3507  141.0578  170.0213 C.ar    1  UNL1        0.0075
     15 C         139.8444  142.4419  170.3224 C.ar    1  UNL1        0.0354
     16 S         140.6364  142.9188  169.1412 S.2     1  UNL1       -0.0864
     17 N         143.2050  144.6725  162.3254 N.3     1  UNL1       -0.1819
     18 H         143.6947  144.8777  163.1963 H       1  UNL1        0.1485
     19 S         141.7655  145.0335  162.5425 S.O2    1  UNL1        0.0391
     20 O         141.4607  144.6749  161.1182 O.2     1  UNL1       -0.1576
     21 O         142.0701  145.3921  163.9667 O.2     1  UNL1       -0.1576
     22 C         139.5917  144.8640  163.9553 C.3     1  UNL1        0.0270
     23 C         140.3258  145.3945  162.7596 C.3     1  UNL1        0.1457
     24 C         139.6203  146.2858  161.7810 C.3     1  UNL1        0.0270
@<TRIPOS>BOND
     1    22    23    1
     2    23    24    1
     3    23    19    1
     4    19    20    2
     5    19    21    2
     6    19    17    1
     7     1    17    1
     8     1     2    1
     9     2     3    1
    10     3     4    1
    11     4     5    1
    12     5     6    1
    13     6     7   ar
    14     7     8   ar
    15     8     9   ar
    16     9    12    1
    17    12    13   ar
    18    13    14   ar
    19    14    15   ar
    20    15    16   ar
    21     9    10   ar
    22    10    11   ar
    23     5     1    1
    24    11     6   ar
    25    16    12   ar
    26    17    18    1
@<TRIPOS>MOLECULE
*****
 24 26 0 0 0
SMALL
GASTEIGER

@<TRIPOS>ATOM
      1 C         143.2222  140.5132  161.5563 C.3     1  UNL1        0.1111
      2 C         143.8917  139.9469  160.3393 C.3     1  UNL1        0.1598
      3 O         144.2499  138.5194  160.6292 O.3     1  UNL1       -0.3519
      4 C         143.8017  138.2035  162.0254 C.3     1  UNL1        0.1480
      5 C         143.1666  139.4357  162.5984 C.3     1  UNL1        0.0704
      6 C         142.5789  139.5673  163.9723 C.ar    1  UNL1       -0.0186
      7 C         143.4710  139.5204  165.1772 C.ar    1  UNL1       -0.0041
      8 C         142.8834  139.6519  166.5510 C.ar    1  UNL1        0.0002
      9 C         141.4037  139.8304  166.7198 C.ar    1  UNL1        0.0060
     10 C         140.5116  139.8773  165.5149 C.ar    1  UNL1        0.0002
     11 C         141.0992  139.7457  164.1411 C.ar    1  UNL1       -0.0041
     12 C         140.8160  139.9620  168.0937 C.ar    1  UNL1        0.0295
     13 C         139.3663  140.1731  168.4161 C.ar    1  UNL1        0.0070
     14 C         139.2292  140.2471  169.9079 C.ar    1  UNL1        0.0075
     15 C         140.5942  140.0818  170.5076 C.ar    1  UNL1        0.0354
     16 S         141.5749  139.9056  169.3863 S.2     1  UNL1       -0.0864
     17 N         142.7001  141.9115  161.7051 N.3     1  UNL1       -0.1819
     18 H         142.8633  142.3829  160.8155 H       1  UNL1        0.1485
     19 S         143.2481  142.8068  162.7765 S.O2    1  UNL1        0.0391
     20 O         141.8638  143.0043  163.3195 O.2     1  UNL1       -0.1576
     21 O         144.6323  142.6093  162.2336 O.2     1  UNL1       -0.1576
     22 C         143.6263  145.1887  163.7425 C.3     1  UNL1        0.0270
     23 C         143.7960  143.7021  163.8480 C.3     1  UNL1        0.1457
     24 C         144.5137  143.1109  165.0250 C.3     1  UNL1        0.0270
@<TRIPOS>BOND
     1    22    23    1
     2    23    24    1
     3    23    19    1
     4    19    20    2
     5    19    21    2
     6    19    17    1
     7     1    17    1
     8     1     2    1
     9     2     3    1
    10     3     4    1
    11     4     5    1
    12     5     6    1
    13     6     7   ar
    14     7     8   ar
    15     8     9   ar
    16     9    12    1
    17    12    13   ar
    18    13    14   ar
    19    14    15   ar
    20    15    16   ar
    21     9    10   ar
    22    10    11   ar
    23     5     1    1
    24    11     6   ar
    25    16    12   ar
    26    17    18    1
