@<TRIPOS>MOLECULE
*****
 32 36 0 0 0
SMALL
GASTEIGER

@<TRIPOS>ATOM
      1 C         143.0178  139.1558  161.2002 C.2     1  UNL1        0.2667
      2 O         144.2525  139.7027  161.8532 O.2     1  UNL1       -0.2684
      3 N         141.7469  139.0288  161.9868 N.am    1  UNL1       -0.2973
      4 H         140.9366  138.6699  161.5582 H       1  UNL1        0.1499
      5 C         141.7107  139.4488  163.4264 C.3     1  UNL1        0.1200
      6 C         142.3189  138.5706  164.4793 C.3     1  UNL1        0.2250
      7 O         142.2827  138.9905  165.9189 O.3     1  UNL1       -0.4740
      8 C         141.6383  140.2887  166.3054 C.ar    1  UNL1        0.1346
      9 C         141.6021  140.7087  167.7450 C.ar    1  UNL1        0.0366
     10 C         140.9576  142.0069  168.1316 C.ar    1  UNL1        0.0031
     11 C         140.3494  142.8851  167.0785 C.ar    1  UNL1       -0.0001
     12 C         140.3856  142.4651  165.6390 C.ar    1  UNL1       -0.0009
     13 C         141.0301  141.1670  165.2524 C.ar    1  UNL1        0.0136
     14 C         141.0663  140.7470  163.8129 C.3     1  UNL1        0.0528
     15 C         139.7775  143.3434  164.5860 C.ar    1  UNL1        0.0029
     16 C         138.3287  143.1919  164.2281 C.ar    1  UNL1        0.0207
     17 C         137.7205  144.0702  163.1751 C.ar    1  UNL1        0.0989
     18 N         138.5611  145.0999  162.4800 N.ar    1  UNL1       -0.2423
     19 C         140.0099  145.2513  162.8380 C.ar    1  UNL1        0.0989
     20 C         140.6180  144.3731  163.8909 C.ar    1  UNL1        0.0207
     21 C         143.8981  141.0290  158.6772 C.3     1  UNL1        0.0558
     22 C         143.4586  139.5969  158.6009 C.ar    1  UNL1        0.1046
     23 N         143.3466  138.7743  157.3516 N.ar    1  UNL1       -0.1506
     24 N         142.8728  137.4048  157.7391 N.ar    1  UNL1       -0.1481
     25 N         142.6920  137.3811  159.2281 N.ar    1  UNL1       -0.1421
     26 C         143.0540  138.7358  159.7606 C.ar    1  UNL1        0.1711
     27 C         142.6236  136.2602  156.8023 C.ar    1  UNL1        0.1029
     28 C         141.3832  136.2375  155.9592 C.ar    1  UNL1        0.0209
     29 C         141.1340  135.0928  155.0224 C.ar    1  UNL1        0.0016
     30 C         142.1252  133.9709  154.9287 C.ar    1  UNL1        0.0001
     31 C         143.3656  133.9936  155.7719 C.ar    1  UNL1        0.0016
     32 C         143.6148  135.1382  156.7087 C.ar    1  UNL1        0.0209
@<TRIPOS>BOND
     1    21    22    1
     2    22    23   ar
     3    23    24   ar
     4    24    27    1
     5    27    28   ar
     6    28    29   ar
     7    29    30   ar
     8    30    31   ar
     9    31    32   ar
    10    24    25   ar
    11    25    26   ar
    12    26     1    1
    13     1     2    2
    14     1     3   am
    15     5     3    1
    16     5     6    1
    17     6     7    1
    18     7     8    1
    19     8     9   ar
    20     9    10   ar
    21    10    11   ar
    22    11    12   ar
    23    12    15    1
    24    15    16   ar
    25    16    17   ar
    26    17    18   ar
    27    18    19   ar
    28    19    20   ar
    29    12    13   ar
    30    13    14    1
    31    26    22   ar
    32    14     5    1
    33    32    27   ar
    34    13     8   ar
    35    20    15   ar
    36     3     4    1
@<TRIPOS>MOLECULE
*****
 32 36 0 0 0
SMALL
GASTEIGER

@<TRIPOS>ATOM
      1 C         142.7529  140.6878  160.5958 C.2     1  UNL1        0.2667
      2 O         143.5534  140.4010  161.8315 O.2     1  UNL1       -0.2684
      3 N         141.3280  140.2286  160.5019 N.am    1  UNL1       -0.2973
      4 H         140.8026  140.4169  159.6909 H       1  UNL1        0.1499
      5 C         140.7036  139.4826  161.6437 C.3     1  UNL1        0.1200
      6 C         140.7317  137.9830  161.6646 C.3     1  UNL1        0.2250
      7 O         140.1073  137.2371  162.8063 O.3     1  UNL1       -0.4740
      8 C         139.4549  137.9906  163.9272 C.ar    1  UNL1        0.1346
      9 C         138.8305  137.2446  165.0690 C.ar    1  UNL1        0.0366
     10 C         138.1781  137.9982  166.1899 C.ar    1  UNL1        0.0031
     11 C         138.1501  139.4978  166.1690 C.ar    1  UNL1       -0.0001
     12 C         138.7744  140.2438  165.0273 C.ar    1  UNL1       -0.0009
     13 C         139.4268  139.4902  163.9064 C.ar    1  UNL1        0.0136
     14 C         140.0512  140.2362  162.7646 C.3     1  UNL1        0.0528
     15 C         138.7464  141.7433  165.0065 C.ar    1  UNL1        0.0029
     16 C         137.6641  142.4629  164.2575 C.ar    1  UNL1        0.0207
     17 C         137.6361  143.9626  164.2367 C.ar    1  UNL1        0.0989
     18 N         138.6903  144.7426  164.9648 N.ar    1  UNL1       -0.2423
     19 C         139.7726  144.0230  165.7137 C.ar    1  UNL1        0.0989
     20 C         139.8006  142.5234  165.7346 C.ar    1  UNL1        0.0207
     21 C         142.1777  143.7983  159.7936 C.3     1  UNL1        0.0558
     22 C         143.1129  142.8636  159.0853 C.ar    1  UNL1        0.1046
     23 N         143.9479  143.1945  157.8839 N.ar    1  UNL1       -0.1506
     24 N         144.7283  141.9692  157.5101 N.ar    1  UNL1       -0.1481
     25 N         144.3756  140.8811  158.4806 N.ar    1  UNL1       -0.1421
     26 C         143.3773  141.4339  159.4540 C.ar    1  UNL1        0.1711
     27 C         145.6922  141.8526  156.3667 C.ar    1  UNL1        0.1029
     28 C         147.0880  142.3842  156.5052 C.ar    1  UNL1        0.0209
     29 C         148.0518  142.2676  155.3618 C.ar    1  UNL1        0.0016
     30 C         147.6198  141.6193  154.0799 C.ar    1  UNL1        0.0001
     31 C         146.2240  141.0877  153.9415 C.ar    1  UNL1        0.0016
     32 C         145.2602  141.2043  155.0849 C.ar    1  UNL1        0.0209
@<TRIPOS>BOND
     1    21    22    1
     2    22    23   ar
     3    23    24   ar
     4    24    27    1
     5    27    28   ar
     6    28    29   ar
     7    29    30   ar
     8    30    31   ar
     9    31    32   ar
    10    24    25   ar
    11    25    26   ar
    12    26     1    1
    13     1     2    2
    14     1     3   am
    15     5     3    1
    16     5     6    1
    17     6     7    1
    18     7     8    1
    19     8     9   ar
    20     9    10   ar
    21    10    11   ar
    22    11    12   ar
    23    12    15    1
    24    15    16   ar
    25    16    17   ar
    26    17    18   ar
    27    18    19   ar
    28    19    20   ar
    29    12    13   ar
    30    13    14    1
    31    26    22   ar
    32    14     5    1
    33    32    27   ar
    34    13     8   ar
    35    20    15   ar
    36     3     4    1
@<TRIPOS>MOLECULE
*****
 32 36 0 0 0
SMALL
GASTEIGER

@<TRIPOS>ATOM
      1 C         140.8959  140.3484  159.3894 C.2     1  UNL1        0.2667
      2 O         140.5747  141.7144  158.8596 O.2     1  UNL1       -0.2684
      3 N         140.4148  139.9393  160.7500 N.am    1  UNL1       -0.2973
      4 H         140.6256  139.0427  161.0977 H       1  UNL1        0.1499
      5 C         139.6123  140.8964  161.5808 C.3     1  UNL1        0.1200
      6 C         138.1276  140.9927  161.3899 C.3     1  UNL1        0.2250
      7 O         137.3252  141.9497  162.2207 O.3     1  UNL1       -0.4740
      8 C         138.0075  142.8103  163.2424 C.ar    1  UNL1        0.1346
      9 C         137.2050  143.7674  164.0732 C.ar    1  UNL1        0.0366
     10 C         137.8873  144.6280  165.0949 C.ar    1  UNL1        0.0031
     11 C         139.3720  144.5317  165.2857 C.ar    1  UNL1       -0.0001
     12 C         140.1744  143.5747  164.4549 C.ar    1  UNL1       -0.0009
     13 C         139.4921  142.7140  163.4333 C.ar    1  UNL1        0.0136
     14 C         140.2945  141.7570  162.6025 C.3     1  UNL1        0.0528
     15 C         141.6591  143.4783  164.6458 C.ar    1  UNL1        0.0029
     16 C         142.5758  144.3654  163.8567 C.ar    1  UNL1        0.0207
     17 C         144.0606  144.2690  164.0476 C.ar    1  UNL1        0.0989
     18 N         144.6284  143.2856  165.0276 N.ar    1  UNL1       -0.2423
     19 C         143.7117  142.3985  165.8166 C.ar    1  UNL1        0.0989
     20 C         142.2270  142.4948  165.6258 C.ar    1  UNL1        0.0207
     21 C         143.9494  140.8157  158.3372 C.3     1  UNL1        0.0558
     22 C         143.1019  139.6061  158.0749 C.ar    1  UNL1        0.1046
     23 N         143.5091  138.3991  157.2830 N.ar    1  UNL1       -0.1506
     24 N         142.3572  137.4382  157.2772 N.ar    1  UNL1       -0.1481
     25 N         141.2381  138.0515  158.0657 N.ar    1  UNL1       -0.1421
     26 C         141.6984  139.3913  158.5586 C.ar    1  UNL1        0.1711
     27 C         142.3294  136.0992  156.6017 C.ar    1  UNL1        0.1029
     28 C         143.3194  135.0418  156.9914 C.ar    1  UNL1        0.0209
     29 C         143.2915  133.7028  156.3159 C.ar    1  UNL1        0.0016
     30 C         142.2736  133.4213  155.2507 C.ar    1  UNL1        0.0001
     31 C         141.2836  134.4787  154.8610 C.ar    1  UNL1        0.0016
     32 C         141.3115  135.8177  155.5365 C.ar    1  UNL1        0.0209
@<TRIPOS>BOND
     1    21    22    1
     2    22    23   ar
     3    23    24   ar
     4    24    27    1
     5    27    28   ar
     6    28    29   ar
     7    29    30   ar
     8    30    31   ar
     9    31    32   ar
    10    24    25   ar
    11    25    26   ar
    12    26     1    1
    13     1     2    2
    14     1     3   am
    15     5     3    1
    16     5     6    1
    17     6     7    1
    18     7     8    1
    19     8     9   ar
    20     9    10   ar
    21    10    11   ar
    22    11    12   ar
    23    12    15    1
    24    15    16   ar
    25    16    17   ar
    26    17    18   ar
    27    18    19   ar
    28    19    20   ar
    29    12    13   ar
    30    13    14    1
    31    26    22   ar
    32    14     5    1
    33    32    27   ar
    34    13     8   ar
    35    20    15   ar
    36     3     4    1
@<TRIPOS>MOLECULE
*****
 32 36 0 0 0
SMALL
GASTEIGER

@<TRIPOS>ATOM
      1 C         143.6194  142.5669  159.6188 C.2     1  UNL1        0.2667
      2 O         144.2906  142.8103  160.9380 O.2     1  UNL1       -0.2684
      3 N         142.1554  142.8515  159.4584 N.am    1  UNL1       -0.2973
      4 H         141.7149  142.6917  158.5926 H       1  UNL1        0.1499
      5 C         141.3626  143.3795  160.6172 C.3     1  UNL1        0.1200
      6 C         141.4267  144.8364  160.9681 C.3     1  UNL1        0.2250
      7 O         140.6339  145.3643  162.1268 O.3     1  UNL1       -0.4740
      8 C         139.7769  144.4353  162.9346 C.ar    1  UNL1        0.1346
      9 C         138.9841  144.9632  164.0934 C.ar    1  UNL1        0.0366
     10 C         138.1271  144.0342  164.9012 C.ar    1  UNL1        0.0031
     11 C         138.0630  142.5772  164.5502 C.ar    1  UNL1       -0.0001
     12 C         138.8558  142.0493  163.3915 C.ar    1  UNL1       -0.0009
     13 C         139.7128  142.9783  162.5837 C.ar    1  UNL1        0.0136
     14 C         140.5056  142.4504  161.4250 C.3     1  UNL1        0.0528
     15 C         138.7917  140.5924  163.0406 C.ar    1  UNL1        0.0029
     16 C         139.7256  139.6205  163.6988 C.ar    1  UNL1        0.0207
     17 C         139.6614  138.1635  163.3479 C.ar    1  UNL1        0.0989
     18 N         138.6634  137.6785  162.3387 N.ar    1  UNL1       -0.2423
     19 C         137.7295  138.6503  161.6804 C.ar    1  UNL1        0.0989
     20 C         137.7936  140.1072  162.0313 C.ar    1  UNL1        0.0207
     21 C         143.4093  139.5633  158.3605 C.3     1  UNL1        0.0558
     22 C         144.3156  140.6583  157.8817 C.ar    1  UNL1        0.1046
     23 N         145.2846  140.5651  156.7404 N.ar    1  UNL1       -0.1506
     24 N         145.9800  141.8881  156.6134 N.ar    1  UNL1       -0.1481
     25 N         145.4408  142.7990  157.6763 N.ar    1  UNL1       -0.1421
     26 C         144.4122  142.0389  158.4600 C.ar    1  UNL1        0.1711
     27 C         147.0302  142.2386  155.6014 C.ar    1  UNL1        0.1029
     28 C         146.7190  143.2132  154.5044 C.ar    1  UNL1        0.0209
     29 C         147.7691  143.5638  153.4924 C.ar    1  UNL1        0.0016
     30 C         149.1305  142.9396  153.5773 C.ar    1  UNL1        0.0001
     31 C         149.4417  141.9650  154.6742 C.ar    1  UNL1        0.0016
     32 C         148.3915  141.6145  155.6863 C.ar    1  UNL1        0.0209
@<TRIPOS>BOND
     1    21    22    1
     2    22    23   ar
     3    23    24   ar
     4    24    27    1
     5    27    28   ar
     6    28    29   ar
     7    29    30   ar
     8    30    31   ar
     9    31    32   ar
    10    24    25   ar
    11    25    26   ar
    12    26     1    1
    13     1     2    2
    14     1     3   am
    15     5     3    1
    16     5     6    1
    17     6     7    1
    18     7     8    1
    19     8     9   ar
    20     9    10   ar
    21    10    11   ar
    22    11    12   ar
    23    12    15    1
    24    15    16   ar
    25    16    17   ar
    26    17    18   ar
    27    18    19   ar
    28    19    20   ar
    29    12    13   ar
    30    13    14    1
    31    26    22   ar
    32    14     5    1
    33    32    27   ar
    34    13     8   ar
    35    20    15   ar
    36     3     4    1
@<TRIPOS>MOLECULE
*****
 32 36 0 0 0
SMALL
GASTEIGER

@<TRIPOS>ATOM
      1 C         142.3315  138.6535  161.3846 C.2     1  UNL1        0.2667
      2 O         143.3981  138.5061  162.4289 O.2     1  UNL1       -0.2684
      3 N         140.9339  139.0210  161.7866 N.am    1  UNL1       -0.2973
      4 H         140.2338  139.1177  161.1012 H       1  UNL1        0.1499
      5 C         140.6029  139.2411  163.2331 C.3     1  UNL1        0.1200
      6 C         139.8750  138.1812  164.0056 C.3     1  UNL1        0.2250
      7 O         139.5440  138.4013  165.4519 O.3     1  UNL1       -0.4740
      8 C         139.9409  139.6813  166.1258 C.ar    1  UNL1        0.1346
      9 C         139.6099  139.9014  167.5722 C.ar    1  UNL1        0.0366
     10 C         140.0069  141.1814  168.2460 C.ar    1  UNL1        0.0031
     11 C         140.7348  142.2413  167.4734 C.ar    1  UNL1       -0.0001
     12 C         141.0658  142.0212  166.0271 C.ar    1  UNL1       -0.0009
     13 C         140.6689  140.7412  165.3533 C.ar    1  UNL1        0.0136
     14 C         140.9998  140.5210  163.9069 C.3     1  UNL1        0.0528
     15 C         141.7937  143.0810  165.2546 C.ar    1  UNL1        0.0029
     16 C         141.0219  144.1158  164.4907 C.ar    1  UNL1        0.0207
     17 C         141.7499  145.1757  163.7182 C.ar    1  UNL1        0.0989
     18 N         143.2496  145.2008  163.7096 N.ar    1  UNL1       -0.2423
     19 C         144.0214  144.1660  164.4735 C.ar    1  UNL1        0.0989
     20 C         143.2935  143.1062  165.2460 C.ar    1  UNL1        0.0207
     21 C         143.7328  140.8197  159.3863 C.3     1  UNL1        0.0558
     22 C         143.3066  139.4291  159.0197 C.ar    1  UNL1        0.1046
     23 N         143.4497  138.7900  157.6702 N.ar    1  UNL1       -0.1506
     24 N         142.8939  137.3993  157.7546 N.ar    1  UNL1       -0.1481
     25 N         142.4074  137.1789  159.1564 N.ar    1  UNL1       -0.1421
     26 C         142.6625  138.4334  159.9382 C.ar    1  UNL1        0.1711
     27 C         142.8350  136.4038  156.6342 C.ar    1  UNL1        0.1029
     28 C         142.4588  136.8509  155.2526 C.ar    1  UNL1        0.0209
     29 C         142.3999  135.8554  154.1322 C.ar    1  UNL1        0.0016
     30 C         142.7173  134.4128  154.3932 C.ar    1  UNL1        0.0001
     31 C         143.0935  133.9657  155.7747 C.ar    1  UNL1        0.0016
     32 C         143.1524  134.9612  156.8952 C.ar    1  UNL1        0.0209
@<TRIPOS>BOND
     1    21    22    1
     2    22    23   ar
     3    23    24   ar
     4    24    27    1
     5    27    28   ar
     6    28    29   ar
     7    29    30   ar
     8    30    31   ar
     9    31    32   ar
    10    24    25   ar
    11    25    26   ar
    12    26     1    1
    13     1     2    2
    14     1     3   am
    15     5     3    1
    16     5     6    1
    17     6     7    1
    18     7     8    1
    19     8     9   ar
    20     9    10   ar
    21    10    11   ar
    22    11    12   ar
    23    12    15    1
    24    15    16   ar
    25    16    17   ar
    26    17    18   ar
    27    18    19   ar
    28    19    20   ar
    29    12    13   ar
    30    13    14    1
    31    26    22   ar
    32    14     5    1
    33    32    27   ar
    34    13     8   ar
    35    20    15   ar
    36     3     4    1
@<TRIPOS>MOLECULE
*****
 32 36 0 0 0
SMALL
GASTEIGER

@<TRIPOS>ATOM
      1 C         139.0743  139.6987  160.8072 C.2     1  UNL1        0.2667
      2 O         139.0290  138.2970  161.3394 O.2     1  UNL1       -0.2684
      3 N         139.1790  140.8574  161.7540 N.am    1  UNL1       -0.2973
      4 H         139.2088  141.7774  161.4047 H       1  UNL1        0.1499
      5 C         139.2385  140.6144  163.2331 C.3     1  UNL1        0.1200
      6 C         137.9906  140.2587  163.9855 C.3     1  UNL1        0.2250
      7 O         138.0502  140.0157  165.4644 O.3     1  UNL1       -0.4740
      8 C         139.3576  140.1285  166.1910 C.ar    1  UNL1        0.1346
      9 C         139.4171  139.8855  167.6700 C.ar    1  UNL1        0.0366
     10 C         140.7246  139.9982  168.3966 C.ar    1  UNL1        0.0031
     11 C         141.9725  140.3540  167.6441 C.ar    1  UNL1       -0.0001
     12 C         141.9130  140.5969  166.1651 C.ar    1  UNL1       -0.0009
     13 C         140.6055  140.4842  165.4386 C.ar    1  UNL1        0.0136
     14 C         140.5460  140.7271  163.9596 C.3     1  UNL1        0.0528
     15 C         143.1609  140.9526  165.4127 C.ar    1  UNL1        0.0029
     16 C         143.5926  142.3856  165.3110 C.ar    1  UNL1        0.0207
     17 C         144.8406  142.7413  164.5585 C.ar    1  UNL1        0.0989
     18 N         145.6568  141.6640  163.9078 N.ar    1  UNL1       -0.2423
     19 C         145.2250  140.2311  164.0096 C.ar    1  UNL1        0.0989
     20 C         143.9771  139.8754  164.7620 C.ar    1  UNL1        0.0207
     21 C         141.6360  140.0028  158.8087 C.3     1  UNL1        0.0558
     22 C         140.1923  140.0815  158.4096 C.ar    1  UNL1        0.1046
     23 N         139.6725  140.3137  157.0218 N.ar    1  UNL1       -0.1506
     24 N         138.1737  140.3175  157.0827 N.ar    1  UNL1       -0.1481
     25 N         137.7672  140.0875  158.5082 N.ar    1  UNL1       -0.1421
     26 C         139.0148  139.9417  159.3282 C.ar    1  UNL1        0.1711
     27 C         137.2446  140.5163  155.9220 C.ar    1  UNL1        0.1029
     28 C         137.2053  139.5085  154.8117 C.ar    1  UNL1        0.0209
     29 C         136.2762  139.7073  153.6510 C.ar    1  UNL1        0.0016
     30 C         135.3864  140.9138  153.6006 C.ar    1  UNL1        0.0001
     31 C         135.4258  141.9216  154.7110 C.ar    1  UNL1        0.0016
     32 C         136.3549  141.7228  155.8717 C.ar    1  UNL1        0.0209
@<TRIPOS>BOND
     1    21    22    1
     2    22    23   ar
     3    23    24   ar
     4    24    27    1
     5    27    28   ar
     6    28    29   ar
     7    29    30   ar
     8    30    31   ar
     9    31    32   ar
    10    24    25   ar
    11    25    26   ar
    12    26     1    1
    13     1     2    2
    14     1     3   am
    15     5     3    1
    16     5     6    1
    17     6     7    1
    18     7     8    1
    19     8     9   ar
    20     9    10   ar
    21    10    11   ar
    22    11    12   ar
    23    12    15    1
    24    15    16   ar
    25    16    17   ar
    26    17    18   ar
    27    18    19   ar
    28    19    20   ar
    29    12    13   ar
    30    13    14    1
    31    26    22   ar
    32    14     5    1
    33    32    27   ar
    34    13     8   ar
    35    20    15   ar
    36     3     4    1
@<TRIPOS>MOLECULE
*****
 32 36 0 0 0
SMALL
GASTEIGER

@<TRIPOS>ATOM
      1 C         142.9584  138.2672  159.1944 C.2     1  UNL1        0.2667
      2 O         143.8700  139.4298  158.9346 O.2     1  UNL1       -0.2684
      3 N         142.4551  138.0044  160.5828 N.am    1  UNL1       -0.2973
      4 H         141.8568  137.2414  160.7532 H       1  UNL1        0.1499
      5 C         142.8634  138.9041  161.7114 C.3     1  UNL1        0.1200
      6 C         144.1161  138.6161  162.4847 C.3     1  UNL1        0.2250
      7 O         144.5243  139.5159  163.6133 O.3     1  UNL1       -0.4740
      8 C         143.6799  140.7036  163.9686 C.ar    1  UNL1        0.1346
      9 C         144.0882  141.6033  165.0973 C.ar    1  UNL1        0.0366
     10 C         143.2438  142.7911  165.4527 C.ar    1  UNL1        0.0031
     11 C         141.9911  143.0791  164.6794 C.ar    1  UNL1       -0.0001
     12 C         141.5829  142.1793  163.5508 C.ar    1  UNL1       -0.0009
     13 C         142.4273  140.9916  163.1954 C.ar    1  UNL1        0.0136
     14 C         142.0190  140.0919  162.0668 C.3     1  UNL1        0.0528
     15 C         140.3302  142.4673  162.7776 C.ar    1  UNL1        0.0029
     16 C         138.9942  142.0936  163.3479 C.ar    1  UNL1        0.0207
     17 C         137.7415  142.3816  162.5745 C.ar    1  UNL1        0.0989
     18 N         137.8249  143.0434  161.2310 N.ar    1  UNL1       -0.2423
     19 C         139.1610  143.4171  160.6608 C.ar    1  UNL1        0.0989
     20 C         140.4136  143.1291  161.4340 C.ar    1  UNL1        0.0207
     21 C         140.8687  139.0176  156.8028 C.3     1  UNL1        0.0558
     22 C         141.5896  137.7124  156.9664 C.ar    1  UNL1        0.1046
     23 N         141.4765  136.5230  156.0596 N.ar    1  UNL1       -0.1506
     24 N         142.3672  135.4429  156.5984 N.ar    1  UNL1       -0.1481
     25 N         143.0307  135.9649  157.8383 N.ar    1  UNL1       -0.1421
     26 C         142.5501  137.3675  158.0657 C.ar    1  UNL1        0.1711
     27 C         142.5604  134.0802  156.0020 C.ar    1  UNL1        0.1029
     28 C         141.4288  133.4097  155.2810 C.ar    1  UNL1        0.0209
     29 C         141.6220  132.0470  154.6846 C.ar    1  UNL1        0.0016
     30 C         142.9468  131.3548  154.8093 C.ar    1  UNL1        0.0001
     31 C         144.0785  132.0253  155.5303 C.ar    1  UNL1        0.0016
     32 C         143.8853  133.3880  156.1266 C.ar    1  UNL1        0.0209
@<TRIPOS>BOND
     1    21    22    1
     2    22    23   ar
     3    23    24   ar
     4    24    27    1
     5    27    28   ar
     6    28    29   ar
     7    29    30   ar
     8    30    31   ar
     9    31    32   ar
    10    24    25   ar
    11    25    26   ar
    12    26     1    1
    13     1     2    2
    14     1     3   am
    15     5     3    1
    16     5     6    1
    17     6     7    1
    18     7     8    1
    19     8     9   ar
    20     9    10   ar
    21    10    11   ar
    22    11    12   ar
    23    12    15    1
    24    15    16   ar
    25    16    17   ar
    26    17    18   ar
    27    18    19   ar
    28    19    20   ar
    29    12    13   ar
    30    13    14    1
    31    26    22   ar
    32    14     5    1
    33    32    27   ar
    34    13     8   ar
    35    20    15   ar
    36     3     4    1
@<TRIPOS>MOLECULE
*****
 32 36 0 0 0
SMALL
GASTEIGER

@<TRIPOS>ATOM
      1 C         138.8352  142.4947  160.7541 C.2     1  UNL1        0.2667
      2 O         138.2276  143.4823  161.7056 O.2     1  UNL1       -0.2684
      3 N         139.3869  141.1985  161.2694 N.am    1  UNL1       -0.2973
      4 H         139.7856  140.5503  160.6448 H       1  UNL1        0.1499
      5 C         139.3310  140.8899  162.7362 C.3     1  UNL1        0.1200
      6 C         138.0256  140.5196  163.3755 C.3     1  UNL1        0.2250
      7 O         137.9697  140.2110  164.8423 O.3     1  UNL1       -0.4740
      8 C         139.2192  140.2727  165.6699 C.ar    1  UNL1        0.1346
      9 C         139.1633  139.9641  167.1368 C.ar    1  UNL1        0.0366
     10 C         140.4129  140.0258  167.9643 C.ar    1  UNL1        0.0031
     11 C         141.7183  140.3961  167.3250 C.ar    1  UNL1       -0.0001
     12 C         141.7742  140.7047  165.8581 C.ar    1  UNL1       -0.0009
     13 C         140.5246  140.6430  165.0306 C.ar    1  UNL1        0.0136
     14 C         140.5805  140.9516  163.5638 C.3     1  UNL1        0.0528
     15 C         143.0796  141.0751  165.2189 C.ar    1  UNL1        0.0029
     16 C         143.5166  142.5095  165.1825 C.ar    1  UNL1        0.0207
     17 C         144.8221  142.8798  164.5431 C.ar    1  UNL1        0.0989
     18 N         145.6905  141.8157  163.9403 N.ar    1  UNL1       -0.2423
     19 C         145.2535  140.3812  163.9766 C.ar    1  UNL1        0.0989
     20 C         143.9480  140.0109  164.6159 C.ar    1  UNL1        0.0207
     21 C         137.7682  140.5676  158.3464 C.3     1  UNL1        0.0558
     22 C         138.4007  141.9175  158.1805 C.ar    1  UNL1        0.1046
     23 N         138.6537  142.6187  156.8789 N.ar    1  UNL1       -0.1506
     24 N         139.3006  143.9379  157.1811 N.ar    1  UNL1       -0.1481
     25 N         139.4473  144.0520  158.6696 N.ar    1  UNL1       -0.1421
     26 C         138.8911  142.8033  159.2872 C.ar    1  UNL1        0.1711
     27 C         139.7261  144.9630  156.1720 C.ar    1  UNL1        0.1029
     28 C         138.9045  146.2014  155.9688 C.ar    1  UNL1        0.0209
     29 C         139.3299  147.2265  154.9598 C.ar    1  UNL1        0.0016
     30 C         140.5770  147.0131  154.1540 C.ar    1  UNL1        0.0001
     31 C         141.3986  145.7747  154.3572 C.ar    1  UNL1        0.0016
     32 C         140.9731  144.7496  155.3662 C.ar    1  UNL1        0.0209
@<TRIPOS>BOND
     1    21    22    1
     2    22    23   ar
     3    23    24   ar
     4    24    27    1
     5    27    28   ar
     6    28    29   ar
     7    29    30   ar
     8    30    31   ar
     9    31    32   ar
    10    24    25   ar
    11    25    26   ar
    12    26     1    1
    13     1     2    2
    14     1     3   am
    15     5     3    1
    16     5     6    1
    17     6     7    1
    18     7     8    1
    19     8     9   ar
    20     9    10   ar
    21    10    11   ar
    22    11    12   ar
    23    12    15    1
    24    15    16   ar
    25    16    17   ar
    26    17    18   ar
    27    18    19   ar
    28    19    20   ar
    29    12    13   ar
    30    13    14    1
    31    26    22   ar
    32    14     5    1
    33    32    27   ar
    34    13     8   ar
    35    20    15   ar
    36     3     4    1
@<TRIPOS>MOLECULE
*****
 32 36 0 0 0
SMALL
GASTEIGER

@<TRIPOS>ATOM
      1 C         141.9835  140.9671  159.3446 C.2     1  UNL1        0.2667
      2 O         141.6997  140.0456  160.4936 O.2     1  UNL1       -0.2684
      3 N         141.2871  142.2927  159.2566 N.am    1  UNL1       -0.2973
      4 H         141.4734  142.8975  158.5024 H       1  UNL1        0.1499
      5 C         140.3068  142.6968  160.3176 C.3     1  UNL1        0.1200
      6 C         138.8418  142.7571  160.0014 C.3     1  UNL1        0.2250
      7 O         137.8615  143.1612  161.0625 O.3     1  UNL1       -0.4740
      8 C         138.3463  143.5050  162.4397 C.ar    1  UNL1        0.1346
      9 C         137.3660  143.9091  163.5007 C.ar    1  UNL1        0.0366
     10 C         137.8508  144.2529  164.8780 C.ar    1  UNL1        0.0031
     11 C         139.3159  144.1926  165.1941 C.ar    1  UNL1       -0.0001
     12 C         140.2962  143.7885  164.1331 C.ar    1  UNL1       -0.0009
     13 C         139.8114  143.4447  162.7559 C.ar    1  UNL1        0.0136
     14 C         140.7916  143.0406  161.6949 C.3     1  UNL1        0.0528
     15 C         141.7612  143.7283  164.4493 C.ar    1  UNL1        0.0029
     16 C         142.3218  142.5471  165.1845 C.ar    1  UNL1        0.0207
     17 C         143.7869  142.4868  165.5007 C.ar    1  UNL1        0.0989
     18 N         144.6913  143.6078  165.0817 N.ar    1  UNL1       -0.2423
     19 C         144.1307  144.7890  164.3465 C.ar    1  UNL1        0.0989
     20 C         142.6657  144.8492  164.0303 C.ar    1  UNL1        0.0207
     21 C         142.3228  137.9757  158.0855 C.3     1  UNL1        0.0558
     22 C         143.1198  139.1880  157.7048 C.ar    1  UNL1        0.1046
     23 N         144.2126  139.2382  156.6785 N.ar    1  UNL1       -0.1506
     24 N         144.7321  140.6443  156.6230 N.ar    1  UNL1       -0.1481
     25 N         143.9602  141.4632  157.6150 N.ar    1  UNL1       -0.1421
     26 C         142.9638  140.5630  158.2835 C.ar    1  UNL1        0.1711
     27 C         145.8305  141.1439  155.7319 C.ar    1  UNL1        0.1029
     28 C         145.8457  140.7711  154.2791 C.ar    1  UNL1        0.0209
     29 C         146.9440  141.2707  153.3880 C.ar    1  UNL1        0.0016
     30 C         148.0272  142.1431  153.9499 C.ar    1  UNL1        0.0001
     31 C         148.0120  142.5158  155.4028 C.ar    1  UNL1        0.0016
     32 C         146.9137  142.0163  156.2938 C.ar    1  UNL1        0.0209
@<TRIPOS>BOND
     1    21    22    1
     2    22    23   ar
     3    23    24   ar
     4    24    27    1
     5    27    28   ar
     6    28    29   ar
     7    29    30   ar
     8    30    31   ar
     9    31    32   ar
    10    24    25   ar
    11    25    26   ar
    12    26     1    1
    13     1     2    2
    14     1     3   am
    15     5     3    1
    16     5     6    1
    17     6     7    1
    18     7     8    1
    19     8     9   ar
    20     9    10   ar
    21    10    11   ar
    22    11    12   ar
    23    12    15    1
    24    15    16   ar
    25    16    17   ar
    26    17    18   ar
    27    18    19   ar
    28    19    20   ar
    29    12    13   ar
    30    13    14    1
    31    26    22   ar
    32    14     5    1
    33    32    27   ar
    34    13     8   ar
    35    20    15   ar
    36     3     4    1
