@<TRIPOS>MOLECULE
*****
 41 46 0 0 0
SMALL
GASTEIGER

@<TRIPOS>ATOM
      1 C         141.7243  144.4709  158.8132 C.3     1  UNL1        0.0832
      2 C         142.2317  145.6872  158.0970 C.3     1  UNL1        0.0374
      3 C         141.5491  146.1615  156.8483 C.3     1  UNL1        0.0738
      4 N         140.3592  145.4195  156.3160 N.3     1  UNL1       -0.2722
      5 C         139.8518  144.2031  157.0322 C.3     1  UNL1        0.0829
      6 C         140.5344  143.7288  158.2808 C.3     1  UNL1        0.1103
      7 O         140.6388  145.2422  161.5015 O.2     1  UNL1       -0.2684
      8 C         141.8641  144.3822  161.4060 C.2     1  UNL1        0.2669
      9 N         142.4069  143.9965  160.0619 N.am    1  UNL1       -0.3006
     10 H         143.2111  143.4321  159.9992 H       1  UNL1        0.1497
     11 C         142.5466  143.9079  162.6547 C.ar    1  UNL1        0.1761
     12 C         142.0477  142.8379  163.5801 C.ar    1  UNL1        0.0673
     13 C         143.0406  142.6890  164.6946 C.ar    1  UNL1        0.1792
     14 O         144.1532  143.6669  164.4579 O.2     1  UNL1       -0.3532
     15 N         143.8478  144.4202  163.1972 N.ar    1  UNL1       -0.0723
     16 C         142.9388  141.7305  165.8439 C.ar    1  UNL1        0.0648
     17 C         142.7527  142.2493  167.2389 C.ar    1  UNL1        0.0077
     18 C         142.6509  141.2909  168.3882 C.ar    1  UNL1        0.0299
     19 C         142.7353  139.8135  168.1424 C.ar    1  UNL1        0.1424
     20 F         142.6335  138.8551  169.2917 F       1  UNL1       -0.2041
     21 C         142.9215  139.2948  166.7475 C.ar    1  UNL1        0.0593
     22 C         143.0232  140.2533  165.5982 C.ar    1  UNL1        0.1453
     23 F         143.2094  139.7344  164.2031 F       1  UNL1       -0.2040
     24 C         140.0270  142.5124  158.9971 C.2     1  UNL1        0.2252
     25 O         140.9592  141.3770  159.3000 O.2     1  UNL1       -0.2750
     26 N         138.5874  142.4315  159.4106 N.am    1  UNL1       -0.3010
     27 H         137.9755  143.1768  159.2118 H       1  UNL1        0.1497
     28 C         138.0800  141.2152  160.1269 C.3     1  UNL1        0.1089
     29 C         137.5965  139.8140  160.3567 C.3     1  UNL1        0.0274
     30 C         137.9726  140.2604  158.9749 C.3     1  UNL1        0.0274
     31 C         138.0111  141.7475  161.5275 C.ar    1  UNL1        0.1549
     32 N         138.1553  140.8139  162.6926 N.ar    1  UNL1       -0.2276
     33 C         138.0864  141.3462  164.0934 C.ar    1  UNL1        0.1019
     34 C         137.8733  142.8121  164.3289 C.ar    1  UNL1        0.0413
     35 C         137.7291  143.7458  163.1638 C.ar    1  UNL1        0.1019
     36 N         137.7980  143.2135  161.7631 N.ar    1  UNL1       -0.2276
     37 C         139.6766  145.8938  155.0673 C.3     1  UNL1        0.0721
     38 C         139.6526  147.3563  154.7350 C.3     1  UNL1        0.0160
     39 C         139.0088  148.5702  155.3365 C.3     1  UNL1        0.0014
     40 C         139.6187  149.4247  154.2651 C.3     1  UNL1        0.0001
     41 C         140.2625  148.2107  153.6635 C.3     1  UNL1        0.0014
@<TRIPOS>BOND
     1     7     8    2
     2     8     9   am
     3     1     9    1
     4     1     2    1
     5     2     3    1
     6     3     4    1
     7     4    37    1
     8    37    38    1
     9    38    39    1
    10    39    40    1
    11    40    41    1
    12     4     5    1
    13     5     6    1
    14     6    24    1
    15    24    25    2
    16    24    26   am
    17    26    28    1
    18    28    31    1
    19    31    32   ar
    20    32    33   ar
    21    33    34   ar
    22    34    35   ar
    23    35    36   ar
    24    28    29    1
    25    29    30    1
    26     8    11    1
    27    11    12   ar
    28    12    13   ar
    29    13    16    1
    30    16    17   ar
    31    17    18   ar
    32    18    19   ar
    33    19    20    1
    34    19    21   ar
    35    21    22   ar
    36    22    23    1
    37    13    14   ar
    38    14    15   ar
    39     6     1    1
    40    30    28    1
    41    15    11   ar
    42    41    38    1
    43    36    31   ar
    44    22    16   ar
    45     9    10    1
    46    26    27    1
@<TRIPOS>MOLECULE
*****
 41 46 0 0 0
SMALL
GASTEIGER

@<TRIPOS>ATOM
      1 C         139.3826  140.2198  164.3219 C.3     1  UNL1        0.0832
      2 C         138.3957  139.4134  165.1130 C.3     1  UNL1        0.0374
      3 C         138.4823  139.3810  166.6101 C.3     1  UNL1        0.0738
      4 N         139.5559  140.1549  167.3161 N.3     1  UNL1       -0.2722
      5 C         140.5428  140.9612  166.5251 C.3     1  UNL1        0.0829
      6 C         140.4561  140.9937  165.0280 C.3     1  UNL1        0.1103
      7 O         137.0644  141.5734  162.9826 O.2     1  UNL1       -0.2684
      8 C         138.1368  140.9290  162.1551 C.2     1  UNL1        0.2669
      9 N         139.2959  140.2522  162.8247 N.am    1  UNL1       -0.3006
     10 H         139.9998  139.8293  162.2816 H       1  UNL1        0.1497
     11 C         138.0502  140.9615  160.6580 C.ar    1  UNL1        0.1761
     12 C         138.5437  142.0651  159.7699 C.ar    1  UNL1        0.0673
     13 C         138.2533  141.6818  158.3491 C.ar    1  UNL1        0.1792
     14 O         137.5803  140.3412  158.3590 O.2     1  UNL1       -0.3532
     15 N         137.4548  139.8961  159.7860 N.ar    1  UNL1       -0.0723
     16 C         138.5787  142.4960  157.1321 C.ar    1  UNL1        0.0648
     17 C         139.9341  143.1227  156.9894 C.ar    1  UNL1        0.0077
     18 C         140.2595  143.9369  155.7724 C.ar    1  UNL1        0.0299
     19 C         139.2296  144.1244  154.6981 C.ar    1  UNL1        0.1424
     20 F         139.5550  144.9386  153.4811 F       1  UNL1       -0.2041
     21 C         137.8743  143.4978  154.8408 C.ar    1  UNL1        0.0593
     22 C         137.5489  142.6836  156.0578 C.ar    1  UNL1        0.1453
     23 F         136.1936  142.0568  156.2005 F       1  UNL1       -0.2040
     24 C         141.4431  141.8000  164.2369 C.2     1  UNL1        0.2252
     25 O         142.1639  141.1765  163.0786 O.2     1  UNL1       -0.2750
     26 N         141.7091  143.2298  164.6041 N.am    1  UNL1       -0.3010
     27 H         141.2360  143.6390  165.3643 H       1  UNL1        0.1497
     28 C         142.6960  144.0362  163.8130 C.3     1  UNL1        0.1089
     29 C         143.9946  144.6619  163.3982 C.3     1  UNL1        0.0274
     30 C         143.9363  143.7961  164.6218 C.3     1  UNL1        0.0274
     31 C         141.7985  144.5563  162.7296 C.ar    1  UNL1        0.1549
     32 N         142.2120  144.4391  161.2925 N.ar    1  UNL1       -0.2276
     33 C         141.3145  144.9593  160.2089 C.ar    1  UNL1        0.1019
     34 C         140.0035  145.5965  160.5625 C.ar    1  UNL1        0.0413
     35 C         139.5900  145.7137  161.9996 C.ar    1  UNL1        0.1019
     36 N         140.4874  145.1936  163.0832 N.ar    1  UNL1       -0.2276
     37 C         139.6425  140.1224  168.8133 C.3     1  UNL1        0.0721
     38 C         140.9788  140.2082  169.4893 C.3     1  UNL1        0.0160
     39 C         141.8163  141.3210  170.0462 C.3     1  UNL1        0.0014
     40 C         142.8686  140.3294  170.4453 C.3     1  UNL1        0.0001
     41 C         142.0311  139.2165  169.8884 C.3     1  UNL1        0.0014
@<TRIPOS>BOND
     1     7     8    2
     2     8     9   am
     3     1     9    1
     4     1     2    1
     5     2     3    1
     6     3     4    1
     7     4    37    1
     8    37    38    1
     9    38    39    1
    10    39    40    1
    11    40    41    1
    12     4     5    1
    13     5     6    1
    14     6    24    1
    15    24    25    2
    16    24    26   am
    17    26    28    1
    18    28    31    1
    19    31    32   ar
    20    32    33   ar
    21    33    34   ar
    22    34    35   ar
    23    35    36   ar
    24    28    29    1
    25    29    30    1
    26     8    11    1
    27    11    12   ar
    28    12    13   ar
    29    13    16    1
    30    16    17   ar
    31    17    18   ar
    32    18    19   ar
    33    19    20    1
    34    19    21   ar
    35    21    22   ar
    36    22    23    1
    37    13    14   ar
    38    14    15   ar
    39     6     1    1
    40    30    28    1
    41    15    11   ar
    42    41    38    1
    43    36    31   ar
    44    22    16   ar
    45     9    10    1
    46    26    27    1
@<TRIPOS>MOLECULE
*****
 41 46 0 0 0
SMALL
GASTEIGER

@<TRIPOS>ATOM
      1 C         142.1733  138.6386  161.2110 C.3     1  UNL1        0.0832
      2 C         142.8049  137.3848  160.6829 C.3     1  UNL1        0.0374
      3 C         143.0057  137.2105  159.2066 C.3     1  UNL1        0.0738
      4 N         142.5748  138.2901  158.2585 N.3     1  UNL1       -0.2722
      5 C         141.9432  139.5439  158.7867 C.3     1  UNL1        0.0829
      6 C         141.7424  139.7182  160.2629 C.3     1  UNL1        0.1103
      7 O         144.5216  139.2170  162.9861 O.2     1  UNL1       -0.2684
      8 C         143.1467  139.1021  163.5748 C.2     1  UNL1        0.2669
      9 N         141.9726  138.8129  162.6873 N.am    1  UNL1       -0.3006
     10 H         141.0702  138.7375  163.0737 H       1  UNL1        0.1497
     11 C         142.9460  139.2764  165.0511 C.ar    1  UNL1        0.1761
     12 C         142.0448  140.2810  165.7058 C.ar    1  UNL1        0.0673
     13 C         142.1531  140.1022  167.1912 C.ar    1  UNL1        0.1792
     14 O         143.1213  138.9872  167.4544 O.2     1  UNL1       -0.3532
     15 N         143.6113  138.4768  166.1318 N.ar    1  UNL1       -0.0723
     16 C         141.4216  140.8986  168.2307 C.ar    1  UNL1        0.0648
     17 C         140.1571  140.3626  168.8338 C.ar    1  UNL1        0.0077
     18 C         139.4257  141.1590  169.8734 C.ar    1  UNL1        0.0299
     19 C         139.9588  142.4914  170.3099 C.ar    1  UNL1        0.1424
     20 F         139.2273  143.2878  171.3494 F       1  UNL1       -0.2041
     21 C         141.2232  143.0274  169.7068 C.ar    1  UNL1        0.0593
     22 C         141.9546  142.2310  168.6672 C.ar    1  UNL1        0.1453
     23 F         143.2192  142.7670  168.0641 F       1  UNL1       -0.2040
     24 C         141.1108  140.9720  160.7911 C.2     1  UNL1        0.2252
     25 O         139.9967  140.8865  161.7917 O.2     1  UNL1       -0.2750
     26 N         141.5933  142.3114  160.3186 N.am    1  UNL1       -0.3010
     27 H         142.3246  142.3675  159.6618 H       1  UNL1        0.1497
     28 C         140.9618  143.5652  160.8467 C.3     1  UNL1        0.1089
     29 C         140.0202  144.7268  160.9665 C.3     1  UNL1        0.0274
     30 C         139.8500  143.7349  159.8541 C.3     1  UNL1        0.0274
     31 C         141.8541  143.8310  162.0227 C.ar    1  UNL1        0.1549
     32 N         143.2255  144.4002  161.8101 N.ar    1  UNL1       -0.2276
     33 C         144.1180  144.6660  162.9861 C.ar    1  UNL1        0.1019
     34 C         143.6389  144.3626  164.3747 C.ar    1  UNL1        0.0413
     35 C         142.2675  143.7934  164.5874 C.ar    1  UNL1        0.1019
     36 N         141.3751  143.5276  163.4114 N.ar    1  UNL1       -0.2276
     37 C         142.7755  138.1158  156.7822 C.3     1  UNL1        0.0721
     38 C         142.9654  136.7431  156.2081 C.3     1  UNL1        0.0160
     39 C         144.0987  136.0185  155.5444 C.3     1  UNL1        0.0014
     40 C         143.2339  134.8018  155.3961 C.3     1  UNL1        0.0001
     41 C         142.1006  135.5265  156.0598 C.3     1  UNL1        0.0014
@<TRIPOS>BOND
     1     7     8    2
     2     8     9   am
     3     1     9    1
     4     1     2    1
     5     2     3    1
     6     3     4    1
     7     4    37    1
     8    37    38    1
     9    38    39    1
    10    39    40    1
    11    40    41    1
    12     4     5    1
    13     5     6    1
    14     6    24    1
    15    24    25    2
    16    24    26   am
    17    26    28    1
    18    28    31    1
    19    31    32   ar
    20    32    33   ar
    21    33    34   ar
    22    34    35   ar
    23    35    36   ar
    24    28    29    1
    25    29    30    1
    26     8    11    1
    27    11    12   ar
    28    12    13   ar
    29    13    16    1
    30    16    17   ar
    31    17    18   ar
    32    18    19   ar
    33    19    20    1
    34    19    21   ar
    35    21    22   ar
    36    22    23    1
    37    13    14   ar
    38    14    15   ar
    39     6     1    1
    40    30    28    1
    41    15    11   ar
    42    41    38    1
    43    36    31   ar
    44    22    16   ar
    45     9    10    1
    46    26    27    1
@<TRIPOS>MOLECULE
*****
 41 46 0 0 0
SMALL
GASTEIGER

@<TRIPOS>ATOM
      1 C         142.1664  141.7820  159.9961 C.3     1  UNL1        0.0832
      2 C         142.0065  143.1317  159.3616 C.3     1  UNL1        0.0374
      3 C         141.3434  144.2431  160.1200 C.3     1  UNL1        0.0738
      4 N         140.8403  144.0047  161.5129 N.3     1  UNL1       -0.2722
      5 C         141.0002  142.6550  162.1474 C.3     1  UNL1        0.0829
      6 C         141.6633  141.5436  161.3890 C.3     1  UNL1        0.1103
      7 O         140.5863  140.1547  158.0326 O.2     1  UNL1       -0.2684
      8 C         142.0394  139.8568  158.2560 C.2     1  UNL1        0.2669
      9 N         142.8295  140.6705  159.2378 N.am    1  UNL1       -0.3006
     10 H         143.7832  140.4750  159.3844 H       1  UNL1        0.1497
     11 C         142.7024  138.7454  157.4977 C.ar    1  UNL1        0.1761
     12 C         142.2238  137.3262  157.4153 C.ar    1  UNL1        0.0673
     13 C         143.1860  136.5617  156.5553 C.ar    1  UNL1        0.1792
     14 O         144.2593  137.5085  156.1061 O.2     1  UNL1       -0.3532
     15 N         143.9604  138.8580  156.6886 N.ar    1  UNL1       -0.0723
     16 C         143.0916  135.1060  156.2058 C.ar    1  UNL1        0.0648
     17 C         142.7989  134.6911  154.7943 C.ar    1  UNL1        0.0077
     18 C         142.7044  133.2354  154.4448 C.ar    1  UNL1        0.0299
     19 C         142.9026  132.1948  155.5068 C.ar    1  UNL1        0.1424
     20 F         142.8082  130.7391  155.1573 F       1  UNL1       -0.2041
     21 C         143.1953  132.6097  156.9181 C.ar    1  UNL1        0.0593
     22 C         143.2898  134.0654  157.2676 C.ar    1  UNL1        0.1453
     23 F         143.5824  134.4803  158.6791 F       1  UNL1       -0.2040
     24 C         141.8232  140.1938  162.0235 C.2     1  UNL1        0.2252
     25 O         143.0278  139.3563  161.7113 O.2     1  UNL1       -0.2750
     26 N         140.7785  139.6816  162.9702 N.am    1  UNL1       -0.3010
     27 H         139.9879  140.2313  163.1751 H       1  UNL1        0.1497
     28 C         140.9384  138.3318  163.6047 C.3     1  UNL1        0.1089
     29 C         140.8934  136.8429  163.7809 C.3     1  UNL1        0.0274
     30 C         140.4040  137.4623  162.5054 C.3     1  UNL1        0.0274
     31 C         141.5282  138.7326  164.9243 C.ar    1  UNL1        0.1549
     32 N         140.8136  139.7225  165.7956 N.ar    1  UNL1       -0.2276
     33 C         141.4034  140.1233  167.1154 C.ar    1  UNL1        0.1019
     34 C         142.7079  139.5341  167.5636 C.ar    1  UNL1        0.0413
     35 C         143.4226  138.5441  166.6923 C.ar    1  UNL1        0.1019
     36 N         142.8328  138.1433  165.3726 N.ar    1  UNL1       -0.2276
     37 C         140.1772  145.1162  162.2712 C.3     1  UNL1        0.0721
     38 C         139.1872  144.7999  163.3527 C.3     1  UNL1        0.0160
     39 C         139.1946  144.8701  164.8511 C.3     1  UNL1        0.0014
     40 C         137.7871  144.3525  164.8823 C.3     1  UNL1        0.0001
     41 C         137.7797  144.2823  163.3839 C.3     1  UNL1        0.0014
@<TRIPOS>BOND
     1     7     8    2
     2     8     9   am
     3     1     9    1
     4     1     2    1
     5     2     3    1
     6     3     4    1
     7     4    37    1
     8    37    38    1
     9    38    39    1
    10    39    40    1
    11    40    41    1
    12     4     5    1
    13     5     6    1
    14     6    24    1
    15    24    25    2
    16    24    26   am
    17    26    28    1
    18    28    31    1
    19    31    32   ar
    20    32    33   ar
    21    33    34   ar
    22    34    35   ar
    23    35    36   ar
    24    28    29    1
    25    29    30    1
    26     8    11    1
    27    11    12   ar
    28    12    13   ar
    29    13    16    1
    30    16    17   ar
    31    17    18   ar
    32    18    19   ar
    33    19    20    1
    34    19    21   ar
    35    21    22   ar
    36    22    23    1
    37    13    14   ar
    38    14    15   ar
    39     6     1    1
    40    30    28    1
    41    15    11   ar
    42    41    38    1
    43    36    31   ar
    44    22    16   ar
    45     9    10    1
    46    26    27    1
@<TRIPOS>MOLECULE
*****
 41 46 0 0 0
SMALL
GASTEIGER

@<TRIPOS>ATOM
      1 C         142.8816  140.9471  159.8989 C.3     1  UNL1        0.0832
      2 C         143.5546  139.9698  158.9813 C.3     1  UNL1        0.0374
      3 C         144.2186  140.4540  157.7265 C.3     1  UNL1        0.0738
      4 N         144.2096  141.9156  157.3892 N.3     1  UNL1       -0.2722
      5 C         143.5366  142.8929  158.3068 C.3     1  UNL1        0.0829
      6 C         142.8726  142.4087  159.5616 C.3     1  UNL1        0.1103
      7 O         144.5306  140.3425  162.3310 O.2     1  UNL1       -0.2684
      8 C         143.0421  140.1606  162.3698 C.2     1  UNL1        0.2669
      9 N         142.2176  140.4629  161.1538 N.am    1  UNL1       -0.3006
     10 H         141.2407  140.3435  161.1792 H       1  UNL1        0.1497
     11 C         142.3781  139.6764  163.6247 C.ar    1  UNL1        0.1761
     12 C         142.4310  140.3471  164.9654 C.ar    1  UNL1        0.0673
     13 C         141.6303  139.5217  165.9285 C.ar    1  UNL1        0.1792
     14 O         141.0826  138.3408  165.1830 O.2     1  UNL1       -0.3532
     15 N         141.5448  138.4365  163.7592 N.ar    1  UNL1       -0.0723
     16 C         141.4151  139.8240  167.3818 C.ar    1  UNL1        0.0648
     17 C         142.5926  139.9806  168.2977 C.ar    1  UNL1        0.0077
     18 C         142.3774  140.2829  169.7511 C.ar    1  UNL1        0.0299
     19 C         140.9846  140.4287  170.2885 C.ar    1  UNL1        0.1424
     20 F         140.7694  140.7310  171.7419 F       1  UNL1       -0.2041
     21 C         139.8071  140.2721  169.3727 C.ar    1  UNL1        0.0593
     22 C         140.0223  139.9698  167.9193 C.ar    1  UNL1        0.1453
     23 F         138.8448  139.8133  167.0034 F       1  UNL1       -0.2040
     24 C         142.1996  143.3860  160.4792 C.2     1  UNL1        0.2252
     25 O         143.0185  144.2108  161.4274 O.2     1  UNL1       -0.2750
     26 N         140.7077  143.5385  160.4485 N.am    1  UNL1       -0.3010
     27 H         140.1702  142.9972  159.8262 H       1  UNL1        0.1497
     28 C         140.0347  144.5158  161.3661 C.3     1  UNL1        0.1089
     29 C         139.5570  145.8213  161.9294 C.3     1  UNL1        0.0274
     30 C         140.3635  145.8004  160.6648 C.3     1  UNL1        0.0274
     31 C         139.4722  143.5707  162.3860 C.ar    1  UNL1        0.1549
     32 N         139.6623  142.0917  162.2233 N.ar    1  UNL1       -0.2276
     33 C         139.0998  141.1464  163.2433 C.ar    1  UNL1        0.1019
     34 C         138.3471  141.6803  164.4258 C.ar    1  UNL1        0.0413
     35 C         138.1570  143.1593  164.5885 C.ar    1  UNL1        0.1019
     36 N         138.7195  144.1045  163.5686 N.ar    1  UNL1       -0.2276
     37 C         144.8736  142.3998  156.1343 C.3     1  UNL1        0.0721
     38 C         146.3513  142.2200  155.9504 C.3     1  UNL1        0.0160
     39 C         147.2201  141.5746  154.9119 C.3     1  UNL1        0.0014
     40 C         148.4412  141.9658  155.6902 C.3     1  UNL1        0.0001
     41 C         147.5724  142.6113  156.7288 C.3     1  UNL1        0.0014
@<TRIPOS>BOND
     1     7     8    2
     2     8     9   am
     3     1     9    1
     4     1     2    1
     5     2     3    1
     6     3     4    1
     7     4    37    1
     8    37    38    1
     9    38    39    1
    10    39    40    1
    11    40    41    1
    12     4     5    1
    13     5     6    1
    14     6    24    1
    15    24    25    2
    16    24    26   am
    17    26    28    1
    18    28    31    1
    19    31    32   ar
    20    32    33   ar
    21    33    34   ar
    22    34    35   ar
    23    35    36   ar
    24    28    29    1
    25    29    30    1
    26     8    11    1
    27    11    12   ar
    28    12    13   ar
    29    13    16    1
    30    16    17   ar
    31    17    18   ar
    32    18    19   ar
    33    19    20    1
    34    19    21   ar
    35    21    22   ar
    36    22    23    1
    37    13    14   ar
    38    14    15   ar
    39     6     1    1
    40    30    28    1
    41    15    11   ar
    42    41    38    1
    43    36    31   ar
    44    22    16   ar
    45     9    10    1
    46    26    27    1
@<TRIPOS>MOLECULE
*****
 41 46 0 0 0
SMALL
GASTEIGER

@<TRIPOS>ATOM
      1 C         142.0011  139.2642  160.7953 C.3     1  UNL1        0.0832
      2 C         142.5796  137.9319  160.4208 C.3     1  UNL1        0.0374
      3 C         142.7778  137.5796  158.9763 C.3     1  UNL1        0.0738
      4 N         142.3974  138.5596  157.9063 N.3     1  UNL1       -0.2722
      5 C         141.8189  139.8919  158.2808 C.3     1  UNL1        0.0829
      6 C         141.6207  140.2442  159.7252 C.3     1  UNL1        0.1103
      7 O         139.7136  138.0748  162.3291 O.2     1  UNL1       -0.2684
      8 C         140.6591  139.0218  163.0067 C.2     1  UNL1        0.2669
      9 N         141.8029  139.6165  162.2398 N.am    1  UNL1       -0.3006
     10 H         142.4234  140.2381  162.6845 H       1  UNL1        0.1497
     11 C         140.4609  139.3741  164.4512 C.ar    1  UNL1        0.1761
     12 C         141.3484  140.2621  165.2720 C.ar    1  UNL1        0.0673
     13 C         140.7764  140.3371  166.6566 C.ar    1  UNL1        0.1792
     14 O         139.5352  139.4954  166.6915 O.2     1  UNL1       -0.3532
     15 N         139.3402  138.9002  165.3285 N.ar    1  UNL1       -0.0723
     16 C         141.3455  141.1168  167.8047 C.ar    1  UNL1        0.0648
     17 C         140.6900  142.3928  168.2429 C.ar    1  UNL1        0.0077
     18 C         141.2591  143.1726  169.3910 C.ar    1  UNL1        0.0299
     19 C         142.4837  142.6762  170.1009 C.ar    1  UNL1        0.1424
     20 F         143.0528  143.4559  171.2490 F       1  UNL1       -0.2041
     21 C         143.1391  141.4002  169.6627 C.ar    1  UNL1        0.0593
     22 C         142.5700  140.6205  168.5146 C.ar    1  UNL1        0.1453
     23 F         143.2255  139.3444  168.0764 F       1  UNL1       -0.2040
     24 C         141.0422  141.5765  160.0998 C.2     1  UNL1        0.2252
     25 O         139.7755  141.6459  160.9002 O.2     1  UNL1       -0.2750
     26 N         141.7304  142.8395  159.6739 N.am    1  UNL1       -0.3010
     27 H         142.5618  142.7939  159.1485 H       1  UNL1        0.1497
     28 C         141.1519  144.1718  160.0484 C.3     1  UNL1        0.1089
     29 C         140.3142  145.4142  159.9801 C.3     1  UNL1        0.0274
     30 C         140.2046  144.3756  158.9033 C.3     1  UNL1        0.0274
     31 C         141.8982  144.4307  161.3235 C.ar    1  UNL1        0.1549
     32 N         143.3323  144.0100  161.4518 N.ar    1  UNL1       -0.2276
     33 C         144.0787  144.2689  162.7269 C.ar    1  UNL1        0.1019
     34 C         143.3910  144.9485  163.8737 C.ar    1  UNL1        0.0413
     35 C         141.9569  145.3692  163.7454 C.ar    1  UNL1        0.1019
     36 N         141.2105  145.1103  162.4703 N.ar    1  UNL1       -0.2276
     37 C         142.5957  138.2073  156.4617 C.3     1  UNL1        0.0721
     38 C         142.9028  136.7923  156.0702 C.3     1  UNL1        0.0160
     39 C         142.1241  135.5110  156.0263 C.3     1  UNL1        0.0014
     40 C         143.3372  134.7911  155.5165 C.3     1  UNL1        0.0001
     41 C         144.1160  136.0723  155.5604 C.3     1  UNL1        0.0014
@<TRIPOS>BOND
     1     7     8    2
     2     8     9   am
     3     1     9    1
     4     1     2    1
     5     2     3    1
     6     3     4    1
     7     4    37    1
     8    37    38    1
     9    38    39    1
    10    39    40    1
    11    40    41    1
    12     4     5    1
    13     5     6    1
    14     6    24    1
    15    24    25    2
    16    24    26   am
    17    26    28    1
    18    28    31    1
    19    31    32   ar
    20    32    33   ar
    21    33    34   ar
    22    34    35   ar
    23    35    36   ar
    24    28    29    1
    25    29    30    1
    26     8    11    1
    27    11    12   ar
    28    12    13   ar
    29    13    16    1
    30    16    17   ar
    31    17    18   ar
    32    18    19   ar
    33    19    20    1
    34    19    21   ar
    35    21    22   ar
    36    22    23    1
    37    13    14   ar
    38    14    15   ar
    39     6     1    1
    40    30    28    1
    41    15    11   ar
    42    41    38    1
    43    36    31   ar
    44    22    16   ar
    45     9    10    1
    46    26    27    1
@<TRIPOS>MOLECULE
*****
 41 46 0 0 0
SMALL
GASTEIGER

@<TRIPOS>ATOM
      1 C         141.3987  143.7471  160.5890 C.3     1  UNL1        0.0832
      2 C         141.2040  145.1575  160.1169 C.3     1  UNL1        0.0374
      3 C         141.0659  145.4454  158.6513 C.3     1  UNL1        0.0738
      4 N         141.1224  144.3229  157.6579 N.3     1  UNL1       -0.2722
      5 C         141.3171  142.9126  158.1300 C.3     1  UNL1        0.0829
      6 C         141.4553  142.6247  159.5956 C.3     1  UNL1        0.1103
      7 O         144.0969  143.8725  161.8944 O.2     1  UNL1       -0.2684
      8 C         142.8860  143.5219  162.7074 C.2     1  UNL1        0.2669
      9 N         141.5369  143.4592  162.0547 N.am    1  UNL1       -0.3006
     10 H         140.7421  143.2291  162.5882 H       1  UNL1        0.1497
     11 C         143.0242  143.2339  164.1730 C.ar    1  UNL1        0.1761
     12 C         142.0811  142.4147  165.0034 C.ar    1  UNL1        0.0673
     13 C         142.6038  142.3891  166.4091 C.ar    1  UNL1        0.1792
     14 O         143.8700  143.1926  166.4475 O.2     1  UNL1       -0.3532
     15 N         144.1297  143.7147  165.0655 N.ar    1  UNL1       -0.0723
     16 C         141.9715  141.6840  167.5722 C.ar    1  UNL1        0.0648
     17 C         142.5782  140.4186  168.1021 C.ar    1  UNL1        0.0077
     18 C         141.9458  139.7134  169.2652 C.ar    1  UNL1        0.0299
     19 C         140.7068  140.2736  169.8984 C.ar    1  UNL1        0.1424
     20 F         140.0744  139.5684  171.0615 F       1  UNL1       -0.2041
     21 C         140.1001  141.5389  169.3685 C.ar    1  UNL1        0.0593
     22 C         140.7325  142.2441  168.2054 C.ar    1  UNL1        0.1453
     23 F         140.1258  143.5094  167.6755 F       1  UNL1       -0.2040
     24 C         141.6500  141.2143  160.0678 C.2     1  UNL1        0.2252
     25 O         140.5277  140.4902  160.7505 O.2     1  UNL1       -0.2750
     26 N         142.9671  140.5280  159.8574 N.am    1  UNL1       -0.3010
     27 H         143.7037  141.0032  159.4093 H       1  UNL1        0.1497
     28 C         143.1619  139.1177  160.3295 C.3     1  UNL1        0.1089
     29 C         143.1845  137.6179  160.3183 C.3     1  UNL1        0.0274
     30 C         142.7338  138.3704  159.1014 C.3     1  UNL1        0.0274
     31 C         143.6576  139.3752  161.7216 C.ar    1  UNL1        0.1549
     32 N         144.7389  140.3877  161.9574 N.ar    1  UNL1       -0.2276
     33 C         145.2347  140.6452  163.3496 C.ar    1  UNL1        0.1019
     34 C         144.6491  139.8902  164.5058 C.ar    1  UNL1        0.0413
     35 C         143.5679  138.8776  164.2700 C.ar    1  UNL1        0.1019
     36 N         143.0721  138.6201  162.8779 N.ar    1  UNL1       -0.2276
     37 C         140.9842  144.6108  156.1922 C.3     1  UNL1        0.0721
     38 C         140.1040  145.7332  155.7281 C.3     1  UNL1        0.0160
     39 C         138.6230  145.9633  155.6655 C.3     1  UNL1        0.0014
     40 C         138.8590  147.3204  155.0717 C.3     1  UNL1        0.0001
     41 C         140.3399  147.0903  155.1342 C.3     1  UNL1        0.0014
@<TRIPOS>BOND
     1     7     8    2
     2     8     9   am
     3     1     9    1
     4     1     2    1
     5     2     3    1
     6     3     4    1
     7     4    37    1
     8    37    38    1
     9    38    39    1
    10    39    40    1
    11    40    41    1
    12     4     5    1
    13     5     6    1
    14     6    24    1
    15    24    25    2
    16    24    26   am
    17    26    28    1
    18    28    31    1
    19    31    32   ar
    20    32    33   ar
    21    33    34   ar
    22    34    35   ar
    23    35    36   ar
    24    28    29    1
    25    29    30    1
    26     8    11    1
    27    11    12   ar
    28    12    13   ar
    29    13    16    1
    30    16    17   ar
    31    17    18   ar
    32    18    19   ar
    33    19    20    1
    34    19    21   ar
    35    21    22   ar
    36    22    23    1
    37    13    14   ar
    38    14    15   ar
    39     6     1    1
    40    30    28    1
    41    15    11   ar
    42    41    38    1
    43    36    31   ar
    44    22    16   ar
    45     9    10    1
    46    26    27    1
@<TRIPOS>MOLECULE
*****
 41 46 0 0 0
SMALL
GASTEIGER

@<TRIPOS>ATOM
      1 C         142.3677  139.0670  161.3100 C.3     1  UNL1        0.0832
      2 C         142.6581  137.7064  160.7491 C.3     1  UNL1        0.0374
      3 C         142.9156  137.5398  159.2809 C.3     1  UNL1        0.0738
      4 N         142.8826  138.7337  158.3734 N.3     1  UNL1       -0.2722
      5 C         142.5921  140.0943  158.9342 C.3     1  UNL1        0.0829
      6 C         142.3347  140.2609  160.4025 C.3     1  UNL1        0.1103
      7 O         144.6641  139.1108  163.2399 O.2     1  UNL1       -0.2684
      8 C         143.2585  139.2556  163.7433 C.2     1  UNL1        0.2669
      9 N         142.1103  139.2336  162.7783 N.am    1  UNL1       -0.3006
     10 H         141.1878  139.3287  163.1087 H       1  UNL1        0.1497
     11 C         143.0011  139.4222  165.2116 C.ar    1  UNL1        0.1761
     12 C         142.1095  140.4524  165.8391 C.ar    1  UNL1        0.0673
     13 C         142.1475  140.2549  167.3255 C.ar    1  UNL1        0.1792
     14 O         143.0626  139.1025  167.6167 O.2     1  UNL1       -0.3532
     15 N         143.5902  138.5879  166.3102 N.ar    1  UNL1       -0.0723
     16 C         141.4014  141.0670  168.3423 C.ar    1  UNL1        0.0648
     17 C         141.0283  142.4881  168.0399 C.ar    1  UNL1        0.0077
     18 C         140.2822  143.3002  169.0566 C.ar    1  UNL1        0.0299
     19 C         139.9093  142.6913  170.3758 C.ar    1  UNL1        0.1424
     20 F         139.1632  143.5034  171.3925 F       1  UNL1       -0.2041
     21 C         140.2824  141.2703  170.6781 C.ar    1  UNL1        0.0593
     22 C         141.0285  140.4582  169.6614 C.ar    1  UNL1        0.1453
     23 F         141.4016  139.0372  169.9638 F       1  UNL1       -0.2040
     24 C         142.0443  141.6215  160.9634 C.2     1  UNL1        0.2252
     25 O         142.9471  142.2112  162.0060 O.2     1  UNL1       -0.2750
     26 N         140.8510  142.3922  160.4816 N.am    1  UNL1       -0.3010
     27 H         140.2585  142.0051  159.7973 H       1  UNL1        0.1497
     28 C         140.5606  143.7527  161.0425 C.3     1  UNL1        0.1089
     29 C         140.5813  145.2436  161.2064 C.3     1  UNL1        0.0274
     30 C         141.3557  144.6005  160.0942 C.3     1  UNL1        0.0274
     31 C         139.6647  143.3775  162.1855 C.ar    1  UNL1        0.1549
     32 N         140.0468  143.7430  163.5892 N.ar    1  UNL1       -0.2276
     33 C         139.1508  143.3677  164.7323 C.ar    1  UNL1        0.1019
     34 C         137.8728  142.6270  164.4716 C.ar    1  UNL1        0.0413
     35 C         137.4908  142.2615  163.0678 C.ar    1  UNL1        0.1019
     36 N         138.3866  142.6367  161.9248 N.ar    1  UNL1       -0.2276
     37 C         143.1400  138.5670  156.9050 C.3     1  UNL1        0.0721
     38 C         143.0680  137.2050  156.2808 C.3     1  UNL1        0.0160
     39 C         144.0632  136.2658  155.6666 C.3     1  UNL1        0.0014
     40 C         142.9661  135.2788  155.3980 C.3     1  UNL1        0.0001
     41 C         141.9708  136.2180  156.0123 C.3     1  UNL1        0.0014
@<TRIPOS>BOND
     1     7     8    2
     2     8     9   am
     3     1     9    1
     4     1     2    1
     5     2     3    1
     6     3     4    1
     7     4    37    1
     8    37    38    1
     9    38    39    1
    10    39    40    1
    11    40    41    1
    12     4     5    1
    13     5     6    1
    14     6    24    1
    15    24    25    2
    16    24    26   am
    17    26    28    1
    18    28    31    1
    19    31    32   ar
    20    32    33   ar
    21    33    34   ar
    22    34    35   ar
    23    35    36   ar
    24    28    29    1
    25    29    30    1
    26     8    11    1
    27    11    12   ar
    28    12    13   ar
    29    13    16    1
    30    16    17   ar
    31    17    18   ar
    32    18    19   ar
    33    19    20    1
    34    19    21   ar
    35    21    22   ar
    36    22    23    1
    37    13    14   ar
    38    14    15   ar
    39     6     1    1
    40    30    28    1
    41    15    11   ar
    42    41    38    1
    43    36    31   ar
    44    22    16   ar
    45     9    10    1
    46    26    27    1
@<TRIPOS>MOLECULE
*****
 41 46 0 0 0
SMALL
GASTEIGER

@<TRIPOS>ATOM
      1 C         142.1144  139.6332  164.6620 C.3     1  UNL1        0.0832
      2 C         142.8776  138.7532  165.6070 C.3     1  UNL1        0.0374
      3 C         142.9585  139.1077  167.0622 C.3     1  UNL1        0.0738
      4 N         142.2763  140.3422  167.5725 N.3     1  UNL1       -0.2722
      5 C         141.5131  141.2223  166.6275 C.3     1  UNL1        0.0829
      6 C         141.4321  140.8678  165.1723 C.3     1  UNL1        0.1103
      7 O         144.3520  140.3814  162.8092 O.2     1  UNL1       -0.2684
      8 C         143.1522  139.6528  162.2803 C.2     1  UNL1        0.2669
      9 N         142.0334  139.2787  163.2067 N.am    1  UNL1       -0.3006
     10 H         141.2459  138.8006  162.8596 H       1  UNL1        0.1497
     11 C         143.0713  139.2984  160.8251 C.ar    1  UNL1        0.1761
     12 C         141.8279  138.9147  160.0789 C.ar    1  UNL1        0.0673
     13 C         142.2076  138.6446  158.6531 C.ar    1  UNL1        0.1792
     14 O         143.6858  138.8613  158.5182 O.2     1  UNL1       -0.3532
     15 N         144.2195  139.2654  159.8605 N.ar    1  UNL1       -0.0723
     16 C         141.2733  138.2305  157.5551 C.ar    1  UNL1        0.0648
     17 C         140.1000  139.0959  157.2025 C.ar    1  UNL1        0.0077
     18 C         139.1657  138.6817  156.1045 C.ar    1  UNL1        0.0299
     19 C         139.4048  137.4022  155.3591 C.ar    1  UNL1        0.1424
     20 F         138.4705  136.9881  154.2612 F       1  UNL1       -0.2041
     21 C         140.5781  136.5368  155.7118 C.ar    1  UNL1        0.0593
     22 C         141.5123  136.9510  156.8097 C.ar    1  UNL1        0.1453
     23 F         142.6857  136.0855  157.1624 F       1  UNL1       -0.2040
     24 C         140.6688  141.7479  164.2273 C.2     1  UNL1        0.2252
     25 O         141.3890  142.4688  163.1266 O.2     1  UNL1       -0.2750
     26 N         139.1855  141.9069  164.3831 N.am    1  UNL1       -0.3010
     27 H         138.7128  141.4338  165.1055 H       1  UNL1        0.1497
     28 C         138.4222  142.7870  163.4381 C.3     1  UNL1        0.1089
     29 C         137.7193  143.9949  162.8933 C.3     1  UNL1        0.0274
     30 C         138.3311  144.0369  164.2623 C.3     1  UNL1        0.0274
     31 C         138.2483  141.8427  162.2857 C.ar    1  UNL1        0.1549
     32 N         138.5667  142.2944  160.8913 N.ar    1  UNL1       -0.2276
     33 C         138.3928  141.3501  159.7388 C.ar    1  UNL1        0.1019
     34 C         137.9004  139.9541  159.9809 C.ar    1  UNL1        0.0413
     35 C         137.5819  139.5024  161.3753 C.ar    1  UNL1        0.1019
     36 N         137.7558  140.4466  162.5278 N.ar    1  UNL1       -0.2276
     37 C         142.3573  140.6967  169.0278 C.3     1  UNL1        0.0721
     38 C         141.3877  141.6788  169.6156 C.3     1  UNL1        0.0160
     39 C         139.9528  141.6226  170.0492 C.3     1  UNL1        0.0014
     40 C         140.0165  143.0676  170.4469 C.3     1  UNL1        0.0001
     41 C         141.4514  143.1237  170.0133 C.3     1  UNL1        0.0014
@<TRIPOS>BOND
     1     7     8    2
     2     8     9   am
     3     1     9    1
     4     1     2    1
     5     2     3    1
     6     3     4    1
     7     4    37    1
     8    37    38    1
     9    38    39    1
    10    39    40    1
    11    40    41    1
    12     4     5    1
    13     5     6    1
    14     6    24    1
    15    24    25    2
    16    24    26   am
    17    26    28    1
    18    28    31    1
    19    31    32   ar
    20    32    33   ar
    21    33    34   ar
    22    34    35   ar
    23    35    36   ar
    24    28    29    1
    25    29    30    1
    26     8    11    1
    27    11    12   ar
    28    12    13   ar
    29    13    16    1
    30    16    17   ar
    31    17    18   ar
    32    18    19   ar
    33    19    20    1
    34    19    21   ar
    35    21    22   ar
    36    22    23    1
    37    13    14   ar
    38    14    15   ar
    39     6     1    1
    40    30    28    1
    41    15    11   ar
    42    41    38    1
    43    36    31   ar
    44    22    16   ar
    45     9    10    1
    46    26    27    1
