@<TRIPOS>MOLECULE
*****
 33 37 0 0 0
SMALL
GASTEIGER

@<TRIPOS>ATOM
      1 C         142.3674  143.7919  161.8506 C.3     1  UNL1        0.0827
      2 C         141.2869  144.8156  161.6646 C.3     1  UNL1        0.0309
      3 C         140.8957  145.2506  160.2835 C.3     1  UNL1        0.0954
      4 N         141.5849  144.6619  159.0883 N.am    1  UNL1       -0.2642
      5 C         141.1937  145.0970  157.7071 C.2     1  UNL1        0.3039
      6 O         141.8829  144.5083  156.5119 O.2     1  UNL1       -0.2526
      7 N         140.1132  146.1207  157.5211 N.am    1  UNL1       -0.2901
      8 C         142.6653  143.6382  159.2743 C.3     1  UNL1        0.0954
      9 C         143.0566  143.2032  160.6555 C.3     1  UNL1        0.0309
     10 H         139.6609  146.5071  158.3055 H       1  UNL1        0.1509
     11 C         142.6368  142.6444  165.5488 C.ar    1  UNL1        0.2033
     12 N         144.0845  142.7303  165.1657 N.ar    1  UNL1       -0.0560
     13 O         144.1599  143.1706  163.7338 O.2     1  UNL1       -0.3370
     14 C         142.7587  143.3568  163.2318 C.ar    1  UNL1        0.2362
     15 N         141.8174  143.0316  164.3536 N.ar    1  UNL1       -0.1908
     16 C         141.0335  141.4371  169.5764 C.ar    1  UNL1        0.0140
     17 C         140.1553  141.3522  168.3634 C.ar    1  UNL1        0.0012
     18 C         140.6897  141.7547  167.0209 C.ar    1  UNL1        0.0032
     19 C         142.1024  142.2420  166.8913 C.ar    1  UNL1        0.0391
     20 C         142.9807  142.3268  168.1043 C.ar    1  UNL1        0.0032
     21 C         142.4462  141.9244  169.4469 C.ar    1  UNL1        0.0012
     22 O         140.6945  141.9331  172.1040 O.co2   1  UNL1       -0.5446
     23 C         140.4991  141.0346  170.9190 C.2     1  UNL1        0.0729
     24 O         139.7693  139.7337  171.0764 O.co2   1  UNL1       -0.5446
     25 C         139.7219  146.5558  156.1399 C.3     1  UNL1        0.0774
     26 C         139.3529  146.2153  154.7264 C.3     1  UNL1        0.0259
     27 C         139.4133  147.6497  155.1611 C.3     1  UNL1        0.0420
     28 C         139.2700  149.1094  154.8469 C.ar    1  UNL1       -0.0208
     29 C         138.5791  150.0211  155.8172 C.ar    1  UNL1       -0.0042
     30 C         138.4358  151.4808  155.5031 C.ar    1  UNL1       -0.0003
     31 C         138.9834  152.0288  154.2186 C.ar    1  UNL1       -0.0000
     32 C         139.6743  151.1171  153.2484 C.ar    1  UNL1       -0.0003
     33 C         139.8176  149.6574  153.5625 C.ar    1  UNL1       -0.0042
@<TRIPOS>UNITY_ATOM_ATTR
22 1
charge -1
@<TRIPOS>BOND
     1    22    23   ar
     2    23    24   ar
     3    23    16    1
     4    16    17   ar
     5    17    18   ar
     6    18    19   ar
     7    19    11    1
     8    11    12   ar
     9    12    13   ar
    10    13    14   ar
    11    14     1    1
    12     1     2    1
    13     2     3    1
    14     3     4    1
    15     4     5   am
    16     5     6    2
    17     5     7   am
    18     7    25    1
    19    25    26    1
    20    26    27    1
    21    27    28    1
    22    28    29   ar
    23    29    30   ar
    24    30    31   ar
    25    31    32   ar
    26    32    33   ar
    27     4     8    1
    28     8     9    1
    29    14    15   ar
    30    19    20   ar
    31    20    21   ar
    32    21    16   ar
    33    15    11   ar
    34     9     1    1
    35    27    25    1
    36    33    28   ar
    37     7    10    1
@<TRIPOS>MOLECULE
*****
 33 37 0 0 0
SMALL
GASTEIGER

@<TRIPOS>ATOM
      1 C         141.1977  140.3758  161.4316 C.3     1  UNL1        0.0827
      2 C         142.5396  139.7679  161.1492 C.3     1  UNL1        0.0309
      3 C         142.7164  138.8542  159.9729 C.3     1  UNL1        0.0954
      4 N         141.5514  138.5484  159.0789 N.am    1  UNL1       -0.2642
      5 C         141.7283  137.6347  157.9025 C.2     1  UNL1        0.3039
      6 O         140.5633  137.3289  157.0085 O.2     1  UNL1       -0.2526
      7 N         143.0702  137.0267  157.6201 N.am    1  UNL1       -0.2901
      8 C         140.2096  139.1563  159.3612 C.3     1  UNL1        0.0954
      9 C         140.0327  140.0700  160.5376 C.3     1  UNL1        0.0309
     10 H         143.8349  137.2274  158.2069 H       1  UNL1        0.1509
     11 C         141.1348  142.2173  164.8478 C.ar    1  UNL1        0.2033
     12 N         140.3622  143.1738  163.9886 N.ar    1  UNL1       -0.0560
     13 O         140.2916  142.6004  162.6043 O.2     1  UNL1       -0.3370
     14 C         141.0207  141.2895  162.6079 C.ar    1  UNL1        0.2362
     15 N         141.5418  141.0528  163.9944 N.ar    1  UNL1       -0.1908
     16 C         142.0680  142.7483  169.2178 C.ar    1  UNL1        0.0140
     17 C         143.1444  142.3122  168.2687 C.ar    1  UNL1        0.0012
     18 C         142.8334  142.1352  166.8120 C.ar    1  UNL1        0.0032
     19 C         141.4459  142.3943  166.3045 C.ar    1  UNL1        0.0391
     20 C         140.3694  142.8304  167.2536 C.ar    1  UNL1        0.0032
     21 C         140.6804  143.0074  168.7103 C.ar    1  UNL1        0.0012
     22 O         143.4075  143.9286  171.1053 O.co2   1  UNL1       -0.5446
     23 C         142.3790  142.9253  170.6745 C.2     1  UNL1        0.0729
     24 O         141.6616  142.0990  171.7004 O.co2   1  UNL1       -0.5446
     25 C         143.2472  136.1130  156.4438 C.3     1  UNL1        0.0774
     26 C         143.2483  135.8905  154.9604 C.3     1  UNL1        0.0259
     27 C         143.5524  134.7530  155.8897 C.3     1  UNL1        0.0420
     28 C         143.9043  133.3110  156.1062 C.ar    1  UNL1       -0.0208
     29 C         144.5486  132.8809  157.3907 C.ar    1  UNL1       -0.0042
     30 C         144.9004  131.4389  157.6073 C.ar    1  UNL1       -0.0003
     31 C         144.6079  130.4271  156.5394 C.ar    1  UNL1       -0.0000
     32 C         143.9636  130.8571  155.2549 C.ar    1  UNL1       -0.0003
     33 C         143.6118  132.2990  155.0383 C.ar    1  UNL1       -0.0042
@<TRIPOS>UNITY_ATOM_ATTR
22 1
charge -1
@<TRIPOS>BOND
     1    22    23   ar
     2    23    24   ar
     3    23    16    1
     4    16    17   ar
     5    17    18   ar
     6    18    19   ar
     7    19    11    1
     8    11    12   ar
     9    12    13   ar
    10    13    14   ar
    11    14     1    1
    12     1     2    1
    13     2     3    1
    14     3     4    1
    15     4     5   am
    16     5     6    2
    17     5     7   am
    18     7    25    1
    19    25    26    1
    20    26    27    1
    21    27    28    1
    22    28    29   ar
    23    29    30   ar
    24    30    31   ar
    25    31    32   ar
    26    32    33   ar
    27     4     8    1
    28     8     9    1
    29    14    15   ar
    30    19    20   ar
    31    20    21   ar
    32    21    16   ar
    33    15    11   ar
    34     9     1    1
    35    27    25    1
    36    33    28   ar
    37     7    10    1
@<TRIPOS>MOLECULE
*****
 33 37 0 0 0
SMALL
GASTEIGER

@<TRIPOS>ATOM
      1 C         140.6245  142.9953  161.0503 C.3     1  UNL1        0.0827
      2 C         141.3356  144.2731  160.7164 C.3     1  UNL1        0.0309
      3 C         141.0994  144.9392  159.3934 C.3     1  UNL1        0.0954
      4 N         140.1521  144.3275  158.4042 N.am    1  UNL1       -0.2642
      5 C         139.9158  144.9937  157.0811 C.2     1  UNL1        0.3039
      6 O         138.9685  144.3820  156.0920 O.2     1  UNL1       -0.2526
      7 N         140.6270  146.2715  156.7472 N.am    1  UNL1       -0.2901
      8 C         139.4410  143.0498  158.7381 C.3     1  UNL1        0.0954
      9 C         139.6772  142.3836  160.0611 C.3     1  UNL1        0.0309
     10 H         141.2487  146.6730  157.3964 H       1  UNL1        0.1509
     11 C         141.2723  141.9760  164.7390 C.ar    1  UNL1        0.2033
     12 N         141.1758  140.6322  164.0796 N.ar    1  UNL1       -0.0560
     13 O         140.9213  140.8504  162.6175 O.2     1  UNL1       -0.3370
     14 C         140.8606  142.3291  162.3733 C.ar    1  UNL1        0.2362
     15 N         141.0776  143.0248  163.6844 N.ar    1  UNL1       -0.1908
     16 C         142.0158  142.7289  169.1128 C.ar    1  UNL1        0.0140
     17 C         143.1439  142.2963  168.2239 C.ar    1  UNL1        0.0012
     18 C         142.8961  142.0453  166.7660 C.ar    1  UNL1        0.0032
     19 C         141.5202  142.2270  166.1970 C.ar    1  UNL1        0.0391
     20 C         140.3921  142.6596  167.0859 C.ar    1  UNL1        0.0032
     21 C         140.6399  142.9106  168.5438 C.ar    1  UNL1        0.0012
     22 O         143.2844  143.9940  170.9943 O.co2   1  UNL1       -0.5446
     23 C         142.2636  142.9799  170.5708 C.2     1  UNL1        0.0729
     24 O         141.4906  142.2168  171.6052 O.co2   1  UNL1       -0.5446
     25 C         140.3908  146.9377  155.4242 C.3     1  UNL1        0.0774
     26 C         140.4020  146.8892  153.9250 C.3     1  UNL1        0.0259
     27 C         139.9705  148.1399  154.6318 C.3     1  UNL1        0.0420
     28 C         139.4788  149.5562  154.5823 C.ar    1  UNL1       -0.0208
     29 C         139.6460  150.3648  153.3300 C.ar    1  UNL1       -0.0042
     30 C         139.1543  151.7811  153.2806 C.ar    1  UNL1       -0.0003
     31 C         138.4954  152.3887  154.4833 C.ar    1  UNL1       -0.0000
     32 C         138.3283  151.5800  155.7356 C.ar    1  UNL1       -0.0003
     33 C         138.8200  150.1638  155.7851 C.ar    1  UNL1       -0.0042
@<TRIPOS>UNITY_ATOM_ATTR
22 1
charge -1
@<TRIPOS>BOND
     1    22    23   ar
     2    23    24   ar
     3    23    16    1
     4    16    17   ar
     5    17    18   ar
     6    18    19   ar
     7    19    11    1
     8    11    12   ar
     9    12    13   ar
    10    13    14   ar
    11    14     1    1
    12     1     2    1
    13     2     3    1
    14     3     4    1
    15     4     5   am
    16     5     6    2
    17     5     7   am
    18     7    25    1
    19    25    26    1
    20    26    27    1
    21    27    28    1
    22    28    29   ar
    23    29    30   ar
    24    30    31   ar
    25    31    32   ar
    26    32    33   ar
    27     4     8    1
    28     8     9    1
    29    14    15   ar
    30    19    20   ar
    31    20    21   ar
    32    21    16   ar
    33    15    11   ar
    34     9     1    1
    35    27    25    1
    36    33    28   ar
    37     7    10    1
@<TRIPOS>MOLECULE
*****
 33 37 0 0 0
SMALL
GASTEIGER

@<TRIPOS>ATOM
      1 C         143.4703  140.0545  161.5776 C.3     1  UNL1        0.0827
      2 C         143.0453  138.6160  161.5672 C.3     1  UNL1        0.0309
      3 C         142.8843  137.8909  160.2641 C.3     1  UNL1        0.0954
      4 N         143.1482  138.6043  158.9713 N.am    1  UNL1       -0.2642
      5 C         142.9872  137.8792  157.6680 C.2     1  UNL1        0.3039
      6 O         143.2512  138.5926  156.3752 O.2     1  UNL1       -0.2526
      7 N         142.5622  136.4407  157.6576 N.am    1  UNL1       -0.2901
      8 C         143.5732  140.0427  158.9816 C.3     1  UNL1        0.0954
      9 C         143.7343  140.7679  160.2848 C.3     1  UNL1        0.0309
     10 H         142.3889  135.9725  158.5062 H       1  UNL1        0.1509
     11 C         143.1697  141.7310  165.0653 C.ar    1  UNL1        0.2033
     12 N         144.5886  142.0599  164.7070 N.ar    1  UNL1       -0.0560
     13 O         144.8740  141.4719  163.3568 O.2     1  UNL1       -0.3370
     14 C         143.6314  140.7796  162.8807 C.ar    1  UNL1        0.2362
     15 N         142.5781  140.9397  163.9367 N.ar    1  UNL1       -0.1908
     16 C         141.0584  142.9109  168.8601 C.ar    1  UNL1        0.0140
     17 C         142.5045  142.5143  168.8986 C.ar    1  UNL1        0.0012
     18 C         143.2083  142.1210  167.6337 C.ar    1  UNL1        0.0032
     19 C         142.4659  142.1243  166.3303 C.ar    1  UNL1        0.0391
     20 C         141.0198  142.5208  166.2918 C.ar    1  UNL1        0.0032
     21 C         140.3161  142.9141  167.5567 C.ar    1  UNL1        0.0012
     22 O         140.0595  142.2709  171.1715 O.co2   1  UNL1       -0.5446
     23 C         140.3547  143.3042  170.1250 C.2     1  UNL1        0.0729
     24 O         139.9460  144.7308  170.3435 O.co2   1  UNL1       -0.5446
     25 C         142.4011  135.7156  156.3545 C.3     1  UNL1        0.0774
     26 C         141.8553  135.6585  154.9584 C.3     1  UNL1        0.0259
     27 C         142.6679  134.5168  155.4933 C.3     1  UNL1        0.0420
     28 C         143.2912  133.1655  155.3049 C.ar    1  UNL1       -0.0208
     29 C         144.3359  132.6808  156.2659 C.ar    1  UNL1       -0.0042
     30 C         144.9591  131.3294  156.0775 C.ar    1  UNL1       -0.0003
     31 C         144.5376  130.4629  154.9280 C.ar    1  UNL1       -0.0000
     32 C         143.4929  130.9476  153.9670 C.ar    1  UNL1       -0.0003
     33 C         142.8697  132.2988  154.1554 C.ar    1  UNL1       -0.0042
@<TRIPOS>UNITY_ATOM_ATTR
22 1
charge -1
@<TRIPOS>BOND
     1    22    23   ar
     2    23    24   ar
     3    23    16    1
     4    16    17   ar
     5    17    18   ar
     6    18    19   ar
     7    19    11    1
     8    11    12   ar
     9    12    13   ar
    10    13    14   ar
    11    14     1    1
    12     1     2    1
    13     2     3    1
    14     3     4    1
    15     4     5   am
    16     5     6    2
    17     5     7   am
    18     7    25    1
    19    25    26    1
    20    26    27    1
    21    27    28    1
    22    28    29   ar
    23    29    30   ar
    24    30    31   ar
    25    31    32   ar
    26    32    33   ar
    27     4     8    1
    28     8     9    1
    29    14    15   ar
    30    19    20   ar
    31    20    21   ar
    32    21    16   ar
    33    15    11   ar
    34     9     1    1
    35    27    25    1
    36    33    28   ar
    37     7    10    1
@<TRIPOS>MOLECULE
*****
 33 37 0 0 0
SMALL
GASTEIGER

@<TRIPOS>ATOM
      1 C         141.2729  140.3462  161.3044 C.3     1  UNL1        0.0827
      2 C         140.1133  139.7050  160.6013 C.3     1  UNL1        0.0309
      3 C         140.3521  138.8236  159.4114 C.3     1  UNL1        0.0954
      4 N         141.7504  138.5833  158.9246 N.am    1  UNL1       -0.2642
      5 C         141.9891  137.7018  157.7345 C.2     1  UNL1        0.3039
      6 O         143.3874  137.4615  157.2477 O.2     1  UNL1       -0.2526
      7 N         140.8296  137.0606  157.0314 N.am    1  UNL1       -0.2901
      8 C         142.9099  139.2244  159.6276 C.3     1  UNL1        0.0954
      9 C         142.6712  140.1059  160.8176 C.3     1  UNL1        0.0309
     10 H         139.9118  137.2184  157.3510 H       1  UNL1        0.1509
     11 C         141.0951  142.1334  164.7453 C.ar    1  UNL1        0.2033
     12 N         140.2388  143.0347  163.9060 N.ar    1  UNL1       -0.0560
     13 O         140.2012  142.4749  162.5148 O.2     1  UNL1       -0.3370
     14 C         141.0342  141.2276  162.4944 C.ar    1  UNL1        0.2362
     15 N         141.5866  141.0166  163.8729 N.ar    1  UNL1       -0.1908
     16 C         142.0257  142.6835  169.1136 C.ar    1  UNL1        0.0140
     17 C         143.1156  142.3000  168.1570 C.ar    1  UNL1        0.0012
     18 C         142.8054  142.1167  166.7009 C.ar    1  UNL1        0.0032
     19 C         141.4053  142.3168  166.2014 C.ar    1  UNL1        0.0391
     20 C         140.3154  142.7002  167.1579 C.ar    1  UNL1        0.0032
     21 C         140.6256  142.8835  168.6140 C.ar    1  UNL1        0.0012
     22 O         141.6089  142.0539  171.5995 O.co2   1  UNL1       -0.5446
     23 C         142.3359  142.8668  170.5696 C.2     1  UNL1        0.0729
     24 O         143.3731  143.8631  170.9958 O.co2   1  UNL1       -0.5446
     25 C         141.0683  136.1792  155.8415 C.3     1  UNL1        0.0774
     26 C         140.8211  135.8485  154.3994 C.3     1  UNL1        0.0259
     27 C         141.7288  134.9832  155.2224 C.3     1  UNL1        0.0420
     28 C         142.6342  133.7930  155.3402 C.ar    1  UNL1       -0.0208
     29 C         142.5595  132.6905  154.3259 C.ar    1  UNL1       -0.0042
     30 C         143.4649  131.5004  154.4436 C.ar    1  UNL1       -0.0003
     31 C         144.4449  131.4128  155.5757 C.ar    1  UNL1       -0.0000
     32 C         144.5197  132.5153  156.5900 C.ar    1  UNL1       -0.0003
     33 C         143.6143  133.7054  156.4723 C.ar    1  UNL1       -0.0042
@<TRIPOS>UNITY_ATOM_ATTR
22 1
charge -1
@<TRIPOS>BOND
     1    22    23   ar
     2    23    24   ar
     3    23    16    1
     4    16    17   ar
     5    17    18   ar
     6    18    19   ar
     7    19    11    1
     8    11    12   ar
     9    12    13   ar
    10    13    14   ar
    11    14     1    1
    12     1     2    1
    13     2     3    1
    14     3     4    1
    15     4     5   am
    16     5     6    2
    17     5     7   am
    18     7    25    1
    19    25    26    1
    20    26    27    1
    21    27    28    1
    22    28    29   ar
    23    29    30   ar
    24    30    31   ar
    25    31    32   ar
    26    32    33   ar
    27     4     8    1
    28     8     9    1
    29    14    15   ar
    30    19    20   ar
    31    20    21   ar
    32    21    16   ar
    33    15    11   ar
    34     9     1    1
    35    27    25    1
    36    33    28   ar
    37     7    10    1
@<TRIPOS>MOLECULE
*****
 33 37 0 0 0
SMALL
GASTEIGER

@<TRIPOS>ATOM
      1 C         143.1531  139.9964  161.9753 C.3     1  UNL1        0.0827
      2 C         143.6506  141.3527  161.5714 C.3     1  UNL1        0.0309
      3 C         144.0870  141.6012  160.1581 C.3     1  UNL1        0.0954
      4 N         144.0260  140.4935  159.1485 N.am    1  UNL1       -0.2642
      5 C         144.4624  140.7420  157.7350 C.2     1  UNL1        0.3039
      6 O         144.4013  139.6343  156.7254 O.2     1  UNL1       -0.2526
      7 N         144.9599  142.0982  157.3311 N.am    1  UNL1       -0.2901
      8 C         143.5285  139.1373  159.5523 C.3     1  UNL1        0.0954
      9 C         143.0920  138.8887  160.9657 C.3     1  UNL1        0.0309
     10 H         145.0000  142.8253  157.9938 H       1  UNL1        0.1509
     11 C         141.9733  140.1042  165.6715 C.ar    1  UNL1        0.2033
     12 N         142.1168  138.6267  165.4560 N.ar    1  UNL1       -0.0560
     13 O         142.5762  138.4065  164.0451 O.2     1  UNL1       -0.3370
     14 C         142.7167  139.7479  163.3887 C.ar    1  UNL1        0.2362
     15 N         142.3441  140.7971  164.3938 N.ar    1  UNL1       -0.1908
     16 C         140.6612  142.1064  169.4819 C.ar    1  UNL1        0.0140
     17 C         141.2290  140.7186  169.5210 C.ar    1  UNL1        0.0012
     18 C         141.6664  140.0512  168.2508 C.ar    1  UNL1        0.0032
     19 C         141.5360  140.7716  166.9416 C.ar    1  UNL1        0.0391
     20 C         140.9682  142.1594  166.9026 C.ar    1  UNL1        0.0032
     21 C         140.5308  142.8268  168.1728 C.ar    1  UNL1        0.0012
     22 O         140.4152  142.0801  172.0682 O.co2   1  UNL1       -0.5446
     23 C         140.2238  142.7738  170.7521 C.2     1  UNL1        0.0729
     24 O         139.5950  144.1348  170.7062 O.co2   1  UNL1       -0.5446
     25 C         145.3964  142.3468  155.9177 C.3     1  UNL1        0.0774
     26 C         145.0570  142.6180  154.4820 C.3     1  UNL1        0.0259
     27 C         146.4916  142.5061  154.9053 C.3     1  UNL1        0.0420
     28 C         147.9523  142.5335  154.5652 C.ar    1  UNL1       -0.0208
     29 C         148.4443  143.3946  153.4399 C.ar    1  UNL1       -0.0042
     30 C         149.9050  143.4220  153.0998 C.ar    1  UNL1       -0.0003
     31 C         150.8736  142.5882  153.8850 C.ar    1  UNL1       -0.0000
     32 C         150.3816  141.7271  155.0103 C.ar    1  UNL1       -0.0003
     33 C         148.9210  141.6997  155.3504 C.ar    1  UNL1       -0.0042
@<TRIPOS>UNITY_ATOM_ATTR
22 1
charge -1
@<TRIPOS>BOND
     1    22    23   ar
     2    23    24   ar
     3    23    16    1
     4    16    17   ar
     5    17    18   ar
     6    18    19   ar
     7    19    11    1
     8    11    12   ar
     9    12    13   ar
    10    13    14   ar
    11    14     1    1
    12     1     2    1
    13     2     3    1
    14     3     4    1
    15     4     5   am
    16     5     6    2
    17     5     7   am
    18     7    25    1
    19    25    26    1
    20    26    27    1
    21    27    28    1
    22    28    29   ar
    23    29    30   ar
    24    30    31   ar
    25    31    32   ar
    26    32    33   ar
    27     4     8    1
    28     8     9    1
    29    14    15   ar
    30    19    20   ar
    31    20    21   ar
    32    21    16   ar
    33    15    11   ar
    34     9     1    1
    35    27    25    1
    36    33    28   ar
    37     7    10    1
@<TRIPOS>MOLECULE
*****
 33 37 0 0 0
SMALL
GASTEIGER

@<TRIPOS>ATOM
      1 C         141.1331  139.7589  160.8324 C.3     1  UNL1        0.0827
      2 C         140.0884  138.9379  160.1361 C.3     1  UNL1        0.0309
      3 C         140.4539  138.1272  158.9282 C.3     1  UNL1        0.0954
      4 N         141.8638  138.1374  158.4166 N.am    1  UNL1       -0.2642
      5 C         142.2293  137.3266  157.2086 C.2     1  UNL1        0.3039
      6 O         143.6392  137.3368  156.6969 O.2     1  UNL1       -0.2526
      7 N         141.1847  136.5055  156.5123 N.am    1  UNL1       -0.2901
      8 C         142.9084  138.9584  159.1127 C.3     1  UNL1        0.0954
      9 C         142.5430  139.7692  160.3207 C.3     1  UNL1        0.0309
     10 H         140.2592  136.4988  156.8482 H       1  UNL1        0.1509
     11 C         140.3288  141.2210  164.3368 C.ar    1  UNL1        0.2033
     12 N         140.0821  142.4138  163.4615 N.ar    1  UNL1       -0.0560
     13 O         140.3533  142.0114  162.0422 O.2     1  UNL1       -0.3370
     14 C         140.7677  140.5697  162.0403 C.ar    1  UNL1        0.2362
     15 N         140.7525  140.0813  163.4584 N.ar    1  UNL1       -0.1908
     16 C         139.8772  141.0853  168.8120 C.ar    1  UNL1        0.0140
     17 C         140.5057  142.2796  168.1575 C.ar    1  UNL1        0.0012
     18 C         140.6562  142.3249  166.6658 C.ar    1  UNL1        0.0032
     19 C         140.1783  141.1757  165.8285 C.ar    1  UNL1        0.0391
     20 C         139.5497  139.9814  166.4831 C.ar    1  UNL1        0.0032
     21 C         139.3992  139.9362  167.9748 C.ar    1  UNL1        0.0012
     22 O         139.8680  142.2968  171.1103 O.co2   1  UNL1       -0.5446
     23 C         139.7266  141.0401  170.3038 C.2     1  UNL1        0.0729
     24 O         139.4346  139.7381  170.9890 O.co2   1  UNL1       -0.5446
     25 C         141.5500  135.6947  155.3044 C.3     1  UNL1        0.0774
     26 C         141.5170  135.4898  153.8188 C.3     1  UNL1        0.0259
     27 C         142.2158  134.4953  154.6977 C.3     1  UNL1        0.0420
     28 C         143.0037  133.2286  154.8549 C.ar    1  UNL1       -0.0208
     29 C         143.9683  133.0818  155.9942 C.ar    1  UNL1       -0.0042
     30 C         144.7562  131.8151  156.1514 C.ar    1  UNL1       -0.0003
     31 C         144.5794  130.6952  155.1693 C.ar    1  UNL1       -0.0000
     32 C         143.6147  130.8420  154.0301 C.ar    1  UNL1       -0.0003
     33 C         142.8269  132.1086  153.8729 C.ar    1  UNL1       -0.0042
@<TRIPOS>UNITY_ATOM_ATTR
22 1
charge -1
@<TRIPOS>BOND
     1    22    23   ar
     2    23    24   ar
     3    23    16    1
     4    16    17   ar
     5    17    18   ar
     6    18    19   ar
     7    19    11    1
     8    11    12   ar
     9    12    13   ar
    10    13    14   ar
    11    14     1    1
    12     1     2    1
    13     2     3    1
    14     3     4    1
    15     4     5   am
    16     5     6    2
    17     5     7   am
    18     7    25    1
    19    25    26    1
    20    26    27    1
    21    27    28    1
    22    28    29   ar
    23    29    30   ar
    24    30    31   ar
    25    31    32   ar
    26    32    33   ar
    27     4     8    1
    28     8     9    1
    29    14    15   ar
    30    19    20   ar
    31    20    21   ar
    32    21    16   ar
    33    15    11   ar
    34     9     1    1
    35    27    25    1
    36    33    28   ar
    37     7    10    1
@<TRIPOS>MOLECULE
*****
 33 37 0 0 0
SMALL
GASTEIGER

@<TRIPOS>ATOM
      1 C         143.0883  139.9149  161.7798 C.3     1  UNL1        0.0827
      2 C         143.4515  138.4651  161.6521 C.3     1  UNL1        0.0309
      3 C         143.2678  137.7586  160.3418 C.3     1  UNL1        0.0954
      4 N         142.7209  138.5017  159.1592 N.am    1  UNL1       -0.2642
      5 C         142.5372  137.7950  157.8488 C.2     1  UNL1        0.3039
      6 O         141.9904  138.5382  156.6662 O.2     1  UNL1       -0.2526
      7 N         142.9005  136.3453  157.7211 N.am    1  UNL1       -0.2901
      8 C         142.3577  139.9514  159.2868 C.3     1  UNL1        0.0954
      9 C         142.5414  140.6580  160.5971 C.3     1  UNL1        0.0309
     10 H         143.2594  135.8575  158.4974 H       1  UNL1        0.1509
     11 C         142.8978  141.4367  165.3454 C.ar    1  UNL1        0.2033
     12 N         144.2112  141.9813  164.8676 N.ar    1  UNL1       -0.0560
     13 O         144.4425  141.4775  163.4737 O.2     1  UNL1       -0.3370
     14 C         143.2720  140.6216  163.0901 C.ar    1  UNL1        0.2362
     15 N         142.3173  140.5963  164.2468 N.ar    1  UNL1       -0.1908
     16 C         141.0274  142.1914  169.3680 C.ar    1  UNL1        0.0140
     17 C         140.1884  141.6795  168.2350 C.ar    1  UNL1        0.0012
     18 C         140.8118  141.4279  166.8941 C.ar    1  UNL1        0.0032
     19 C         142.2743  141.6883  166.6863 C.ar    1  UNL1        0.0391
     20 C         143.1134  142.2003  167.8193 C.ar    1  UNL1        0.0032
     21 C         142.4899  142.4518  169.1602 C.ar    1  UNL1        0.0012
     22 O         140.6110  141.4655  171.8276 O.co2   1  UNL1       -0.5446
     23 C         140.4040  142.4430  170.7089 C.2     1  UNL1        0.0729
     24 O         139.5734  143.6721  170.9312 O.co2   1  UNL1       -0.5446
     25 C         142.7168  135.6386  156.4108 C.3     1  UNL1        0.0774
     26 C         142.6333  135.6790  154.9137 C.3     1  UNL1        0.0259
     27 C         142.4822  134.3744  155.6384 C.3     1  UNL1        0.0420
     28 C         142.2596  132.8912  155.6109 C.ar    1  UNL1       -0.0208
     29 C         141.3284  132.2912  154.5995 C.ar    1  UNL1       -0.0042
     30 C         141.1058  130.8081  154.5720 C.ar    1  UNL1       -0.0003
     31 C         141.8144  129.9250  155.5558 C.ar    1  UNL1       -0.0000
     32 C         142.7456  130.5250  156.5672 C.ar    1  UNL1       -0.0003
     33 C         142.9682  132.0081  156.5947 C.ar    1  UNL1       -0.0042
@<TRIPOS>UNITY_ATOM_ATTR
22 1
charge -1
@<TRIPOS>BOND
     1    22    23   ar
     2    23    24   ar
     3    23    16    1
     4    16    17   ar
     5    17    18   ar
     6    18    19   ar
     7    19    11    1
     8    11    12   ar
     9    12    13   ar
    10    13    14   ar
    11    14     1    1
    12     1     2    1
    13     2     3    1
    14     3     4    1
    15     4     5   am
    16     5     6    2
    17     5     7   am
    18     7    25    1
    19    25    26    1
    20    26    27    1
    21    27    28    1
    22    28    29   ar
    23    29    30   ar
    24    30    31   ar
    25    31    32   ar
    26    32    33   ar
    27     4     8    1
    28     8     9    1
    29    14    15   ar
    30    19    20   ar
    31    20    21   ar
    32    21    16   ar
    33    15    11   ar
    34     9     1    1
    35    27    25    1
    36    33    28   ar
    37     7    10    1
@<TRIPOS>MOLECULE
*****
 33 37 0 0 0
SMALL
GASTEIGER

@<TRIPOS>ATOM
      1 C         142.3791  141.9309  161.0335 C.3     1  UNL1        0.0827
      2 C         143.3558  140.8680  160.6254 C.3     1  UNL1        0.0309
      3 C         143.9928  140.9161  159.2683 C.3     1  UNL1        0.0954
      4 N         143.6533  142.0270  158.3193 N.am    1  UNL1       -0.2642
      5 C         144.2904  142.0750  156.9621 C.2     1  UNL1        0.3039
      6 O         143.9509  143.1859  156.0131 O.2     1  UNL1       -0.2526
      7 N         145.2671  141.0122  156.5540 N.am    1  UNL1       -0.2901
      8 C         142.6766  143.0897  158.7273 C.3     1  UNL1        0.0954
      9 C         142.0395  143.0417  160.0844 C.3     1  UNL1        0.0309
     10 H         145.4900  140.2831  157.1769 H       1  UNL1        0.1509
     11 C         141.4072  142.0300  164.7899 C.ar    1  UNL1        0.2033
     12 N         140.1158  141.5879  164.1680 N.ar    1  UNL1       -0.0560
     13 O         140.3227  141.4969  162.6851 O.2     1  UNL1       -0.3370
     14 C         141.7419  141.8828  162.3906 C.ar    1  UNL1        0.2362
     15 N         142.4122  142.2123  163.6914 N.ar    1  UNL1       -0.1908
     16 C         142.1381  142.6933  169.1804 C.ar    1  UNL1        0.0140
     17 C         143.2796  142.3345  168.2758 C.ar    1  UNL1        0.0012
     18 C         143.0359  142.1134  166.8124 C.ar    1  UNL1        0.0032
     19 C         141.6508  142.2511  166.2534 C.ar    1  UNL1        0.0391
     20 C         140.5094  142.6099  167.1580 C.ar    1  UNL1        0.0032
     21 C         140.7530  142.8310  168.6214 C.ar    1  UNL1        0.0012
     22 O         141.6243  142.1119  171.6599 O.co2   1  UNL1       -0.5446
     23 C         142.3817  142.9143  170.6439 C.2     1  UNL1        0.0729
     24 O         143.3827  143.9379  171.0913 O.co2   1  UNL1       -0.5446
     25 C         145.9043  141.0603  155.1969 C.3     1  UNL1        0.0774
     26 C         145.8410  140.7945  153.7220 C.3     1  UNL1        0.0259
     27 C         147.0711  141.4092  154.3213 C.3     1  UNL1        0.0420
     28 C         148.4549  141.9655  154.1616 C.ar    1  UNL1       -0.0208
     29 C         148.7221  143.0296  153.1388 C.ar    1  UNL1       -0.0042
     30 C         150.1059  143.5859  152.9792 C.ar    1  UNL1       -0.0003
     31 C         151.2225  143.0782  153.8424 C.ar    1  UNL1       -0.0000
     32 C         150.9553  142.0141  154.8653 C.ar    1  UNL1       -0.0003
     33 C         149.5716  141.4578  155.0249 C.ar    1  UNL1       -0.0042
@<TRIPOS>UNITY_ATOM_ATTR
22 1
charge -1
@<TRIPOS>BOND
     1    22    23   ar
     2    23    24   ar
     3    23    16    1
     4    16    17   ar
     5    17    18   ar
     6    18    19   ar
     7    19    11    1
     8    11    12   ar
     9    12    13   ar
    10    13    14   ar
    11    14     1    1
    12     1     2    1
    13     2     3    1
    14     3     4    1
    15     4     5   am
    16     5     6    2
    17     5     7   am
    18     7    25    1
    19    25    26    1
    20    26    27    1
    21    27    28    1
    22    28    29   ar
    23    29    30   ar
    24    30    31   ar
    25    31    32   ar
    26    32    33   ar
    27     4     8    1
    28     8     9    1
    29    14    15   ar
    30    19    20   ar
    31    20    21   ar
    32    21    16   ar
    33    15    11   ar
    34     9     1    1
    35    27    25    1
    36    33    28   ar
    37     7    10    1
