@<TRIPOS>MOLECULE
*****
 25 27 0 0 0
SMALL
GASTEIGER

@<TRIPOS>ATOM
      1 C         138.6640  140.6004  158.0029 C.ar    1  UNL1        0.2701
      2 C         137.8485  141.0696  156.8347 C.ar    1  UNL1        0.0787
      3 C         137.9063  140.3266  155.5329 C.ar    1  UNL1        0.0136
      4 C         138.7797  139.1144  155.3994 C.ar    1  UNL1        0.0787
      5 C         139.5952  138.6453  156.5676 C.ar    1  UNL1        0.2701
      6 N         139.5373  139.3883  157.8694 N.ar    1  UNL1       -0.1494
      7 C         140.3529  138.9191  159.0377 C.3     1  UNL1        0.4092
      8 C         138.5482  142.0864  160.6065 C.1     1  UNL1       -0.0540
      9 C         138.6061  141.3434  159.3047 C.1     1  UNL1        0.0086
     10 C         138.3168  145.0584  165.8135 C.3     1  UNL1        0.0310
     11 C         138.3746  144.3154  164.5118 C.ar    1  UNL1       -0.0218
     12 C         139.1749  144.8661  163.3689 C.ar    1  UNL1       -0.0036
     13 C         139.2328  144.1231  162.0671 C.ar    1  UNL1        0.0079
     14 C         138.4904  142.8294  161.9082 C.ar    1  UNL1        0.0421
     15 C         137.6901  142.2788  163.0512 C.ar    1  UNL1        0.0079
     16 C         137.6322  143.0218  164.3529 C.ar    1  UNL1       -0.0036
     17 C         140.4687  137.4331  156.4341 C.1     1  UNL1        0.0086
     18 C         141.3420  136.2210  156.3006 C.1     1  UNL1       -0.0540
     19 C         142.2155  135.0088  156.1671 C.ar    1  UNL1        0.0421
     20 C         142.0851  134.1190  154.9665 C.ar    1  UNL1        0.0079
     21 C         142.9585  132.9068  154.8330 C.ar    1  UNL1       -0.0036
     22 C         143.9622  132.5845  155.9000 C.ar    1  UNL1       -0.0218
     23 C         144.8357  131.3723  155.7665 C.3     1  UNL1        0.0310
     24 C         144.0926  133.4742  157.1006 C.ar    1  UNL1       -0.0036
     25 C         143.2192  134.6864  157.2341 C.ar    1  UNL1        0.0079
@<TRIPOS>UNITY_ATOM_ATTR
6 1
charge 1
@<TRIPOS>BOND
     1    10    11    1
     2    11    12   ar
     3    12    13   ar
     4    13    14   ar
     5    14     8    1
     6     8     9    3
     7     9     1    1
     8     1     2   ar
     9     2     3   ar
    10     3     4   ar
    11     4     5   ar
    12     5    17    1
    13    17    18    3
    14    18    19    1
    15    19    20   ar
    16    20    21   ar
    17    21    22   ar
    18    22    23    1
    19    22    24   ar
    20    24    25   ar
    21     5     6   ar
    22     6     7    1
    23    14    15   ar
    24    15    16   ar
    25    16    11   ar
    26     6     1   ar
    27    25    19   ar
@<TRIPOS>MOLECULE
*****
 25 27 0 0 0
SMALL
GASTEIGER

@<TRIPOS>ATOM
      1 C         139.6326  138.6102  156.6000 C.ar    1  UNL1        0.2701
      2 C         138.8210  139.0757  155.4276 C.ar    1  UNL1        0.0787
      3 C         137.9474  140.2885  155.5543 C.ar    1  UNL1        0.0136
      4 C         137.8855  141.0358  156.8534 C.ar    1  UNL1        0.0787
      5 C         138.6971  140.5703  158.0258 C.ar    1  UNL1        0.2701
      6 N         139.5706  139.3575  157.8991 N.ar    1  UNL1       -0.1494
      7 C         140.3823  138.8920  159.0716 C.3     1  UNL1        0.4092
      8 C         141.3797  136.1846  156.3467 C.1     1  UNL1       -0.0540
      9 C         140.5061  137.3974  156.4734 C.1     1  UNL1        0.0086
     10 C         144.8739  131.3335  155.8400 C.3     1  UNL1        0.0310
     11 C         144.0003  132.5463  155.9667 C.ar    1  UNL1       -0.0218
     12 C         142.9693  132.8408  154.9178 C.ar    1  UNL1       -0.0036
     13 C         142.0958  134.0536  155.0445 C.ar    1  UNL1        0.0079
     14 C         142.2532  134.9719  156.2200 C.ar    1  UNL1        0.0421
     15 C         143.2843  134.6773  157.2689 C.ar    1  UNL1        0.0079
     16 C         144.1578  133.4645  157.1422 C.ar    1  UNL1       -0.0036
     17 C         138.6352  141.3176  159.3250 C.1     1  UNL1        0.0086
     18 C         138.5733  142.0649  160.6241 C.1     1  UNL1       -0.0540
     19 C         138.5113  142.8122  161.9233 C.ar    1  UNL1        0.0421
     20 C         139.2921  144.0812  162.0964 C.ar    1  UNL1        0.0079
     21 C         139.2302  144.8285  163.3955 C.ar    1  UNL1       -0.0036
     22 C         138.3876  144.3068  164.5214 C.ar    1  UNL1       -0.0218
     23 C         138.3257  145.0541  165.8206 C.3     1  UNL1        0.0310
     24 C         137.6068  143.0378  164.3482 C.ar    1  UNL1       -0.0036
     25 C         137.6687  142.2905  163.0492 C.ar    1  UNL1        0.0079
@<TRIPOS>UNITY_ATOM_ATTR
6 1
charge 1
@<TRIPOS>BOND
     1    10    11    1
     2    11    12   ar
     3    12    13   ar
     4    13    14   ar
     5    14     8    1
     6     8     9    3
     7     9     1    1
     8     1     2   ar
     9     2     3   ar
    10     3     4   ar
    11     4     5   ar
    12     5    17    1
    13    17    18    3
    14    18    19    1
    15    19    20   ar
    16    20    21   ar
    17    21    22   ar
    18    22    23    1
    19    22    24   ar
    20    24    25   ar
    21     5     6   ar
    22     6     7    1
    23    14    15   ar
    24    15    16   ar
    25    16    11   ar
    26     6     1   ar
    27    25    19   ar
@<TRIPOS>MOLECULE
*****
 25 27 0 0 0
SMALL
GASTEIGER

@<TRIPOS>ATOM
      1 C         143.3586  139.7535  159.2777 C.ar    1  UNL1        0.2701
      2 C         143.8330  140.9998  158.5910 C.ar    1  UNL1        0.0787
      3 C         144.1453  142.2268  159.3953 C.ar    1  UNL1        0.0136
      4 C         143.9833  142.2075  160.8863 C.ar    1  UNL1        0.0787
      5 C         143.5089  140.9612  161.5731 C.ar    1  UNL1        0.2701
      6 N         143.1966  139.7342  160.7688 N.ar    1  UNL1       -0.1494
      7 C         142.7222  138.4879  161.4556 C.3     1  UNL1        0.4092
      8 C         142.7339  137.2995  157.6691 C.1     1  UNL1       -0.0540
      9 C         143.0463  138.5265  158.4734 C.1     1  UNL1        0.0086
     10 C         141.4845  132.3915  154.4519 C.3     1  UNL1        0.0310
     11 C         141.7969  133.6185  155.2562 C.ar    1  UNL1       -0.0218
     12 C         141.0671  134.9002  154.9831 C.ar    1  UNL1       -0.0036
     13 C         141.3794  136.1272  155.7874 C.ar    1  UNL1        0.0079
     14 C         142.4216  136.0725  156.8648 C.ar    1  UNL1        0.0421
     15 C         143.1514  134.7909  157.1379 C.ar    1  UNL1        0.0079
     16 C         142.8390  133.5639  156.3336 C.ar    1  UNL1       -0.0036
     17 C         143.3469  140.9419  163.0642 C.1     1  UNL1        0.0086
     18 C         143.1849  140.9225  164.5553 C.1     1  UNL1       -0.0540
     19 C         143.0228  140.9032  166.0465 C.ar    1  UNL1        0.0421
     20 C         142.7526  139.6088  166.7548 C.ar    1  UNL1        0.0079
     21 C         142.5906  139.5894  168.2458 C.ar    1  UNL1       -0.0036
     22 C         142.6988  140.8644  169.0286 C.ar    1  UNL1       -0.0218
     23 C         142.5367  140.8450  170.5197 C.3     1  UNL1        0.0310
     24 C         142.9690  142.1587  168.3203 C.ar    1  UNL1       -0.0036
     25 C         143.1311  142.1781  166.8292 C.ar    1  UNL1        0.0079
@<TRIPOS>UNITY_ATOM_ATTR
6 1
charge 1
@<TRIPOS>BOND
     1    10    11    1
     2    11    12   ar
     3    12    13   ar
     4    13    14   ar
     5    14     8    1
     6     8     9    3
     7     9     1    1
     8     1     2   ar
     9     2     3   ar
    10     3     4   ar
    11     4     5   ar
    12     5    17    1
    13    17    18    3
    14    18    19    1
    15    19    20   ar
    16    20    21   ar
    17    21    22   ar
    18    22    23    1
    19    22    24   ar
    20    24    25   ar
    21     5     6   ar
    22     6     7    1
    23    14    15   ar
    24    15    16   ar
    25    16    11   ar
    26     6     1   ar
    27    25    19   ar
@<TRIPOS>MOLECULE
*****
 25 27 0 0 0
SMALL
GASTEIGER

@<TRIPOS>ATOM
      1 C         143.2896  139.8133  159.2808 C.ar    1  UNL1        0.2701
      2 C         143.7257  141.0743  158.5954 C.ar    1  UNL1        0.0787
      3 C         144.0178  142.3043  159.4027 C.ar    1  UNL1        0.0136
      4 C         143.8740  142.2733  160.8955 C.ar    1  UNL1        0.0787
      5 C         143.4380  141.0123  161.5808 C.ar    1  UNL1        0.2701
      6 N         143.1458  139.7824  160.7735 N.ar    1  UNL1       -0.1494
      7 C         142.7098  138.5213  161.4590 C.3     1  UNL1        0.4092
      8 C         142.7053  137.3534  157.6661 C.1     1  UNL1       -0.0540
      9 C         142.9974  138.5834  158.4734 C.1     1  UNL1        0.0086
     10 C         141.5365  132.4335  154.4368 C.3     1  UNL1        0.0310
     11 C         141.8287  133.6635  155.2441 C.ar    1  UNL1       -0.0218
     12 C         142.8795  133.6264  156.3138 C.ar    1  UNL1       -0.0036
     13 C         143.1717  134.8563  157.1211 C.ar    1  UNL1        0.0079
     14 C         142.4131  136.1234  156.8588 C.ar    1  UNL1        0.0421
     15 C         141.3622  136.1605  155.7891 C.ar    1  UNL1        0.0079
     16 C         141.0700  134.9306  154.9817 C.ar    1  UNL1       -0.0036
     17 C         143.2942  140.9813  163.0737 C.1     1  UNL1        0.0086
     18 C         143.1503  140.9502  164.5664 C.1     1  UNL1       -0.0540
     19 C         143.0064  140.9192  166.0592 C.ar    1  UNL1        0.0421
     20 C         143.1179  142.1890  166.8500 C.ar    1  UNL1        0.0079
     21 C         142.9741  142.1580  168.3427 C.ar    1  UNL1       -0.0036
     22 C         142.7187  140.8572  169.0447 C.ar    1  UNL1       -0.0218
     23 C         142.5749  140.8262  170.5375 C.3     1  UNL1        0.0310
     24 C         142.6073  139.5875  168.2539 C.ar    1  UNL1       -0.0036
     25 C         142.7511  139.6185  166.7612 C.ar    1  UNL1        0.0079
@<TRIPOS>UNITY_ATOM_ATTR
6 1
charge 1
@<TRIPOS>BOND
     1    10    11    1
     2    11    12   ar
     3    12    13   ar
     4    13    14   ar
     5    14     8    1
     6     8     9    3
     7     9     1    1
     8     1     2   ar
     9     2     3   ar
    10     3     4   ar
    11     4     5   ar
    12     5    17    1
    13    17    18    3
    14    18    19    1
    15    19    20   ar
    16    20    21   ar
    17    21    22   ar
    18    22    23    1
    19    22    24   ar
    20    24    25   ar
    21     5     6   ar
    22     6     7    1
    23    14    15   ar
    24    15    16   ar
    25    16    11   ar
    26     6     1   ar
    27    25    19   ar
@<TRIPOS>MOLECULE
*****
 25 27 0 0 0
SMALL
GASTEIGER

@<TRIPOS>ATOM
      1 C         143.4360  141.0136  161.5964 C.ar    1  UNL1        0.2701
      2 C         143.8688  142.2770  160.9134 C.ar    1  UNL1        0.0787
      3 C         144.0128  142.3112  159.4207 C.ar    1  UNL1        0.0136
      4 C         143.7240  141.0820  158.6111 C.ar    1  UNL1        0.0787
      5 C         143.2912  139.8186  159.2941 C.ar    1  UNL1        0.2701
      6 N         143.1472  139.7844  160.7868 N.ar    1  UNL1       -0.1494
      7 C         142.7144  138.5210  161.4698 C.3     1  UNL1        0.4092
      8 C         143.1481  140.9453  164.5818 C.1     1  UNL1       -0.0540
      9 C         143.2921  140.9795  163.0891 C.1     1  UNL1        0.0086
     10 C         142.5722  140.8086  170.5525 C.3     1  UNL1        0.0310
     11 C         142.7161  140.8428  169.0598 C.ar    1  UNL1       -0.0218
     12 C         142.9835  142.1432  168.3617 C.ar    1  UNL1       -0.0036
     13 C         143.1275  142.1773  166.8690 C.ar    1  UNL1        0.0079
     14 C         143.0041  140.9111  166.0745 C.ar    1  UNL1        0.0421
     15 C         142.7367  139.6107  166.7726 C.ar    1  UNL1        0.0079
     16 C         142.5928  139.5765  168.2653 C.ar    1  UNL1       -0.0036
     17 C         143.0024  138.5893  158.4844 C.1     1  UNL1        0.0086
     18 C         142.7136  137.3601  157.6747 C.1     1  UNL1       -0.0540
     19 C         142.4248  136.1308  156.8651 C.ar    1  UNL1        0.0421
     20 C         141.3803  136.1697  155.7892 C.ar    1  UNL1        0.0079
     21 C         141.0914  134.9405  154.9796 C.ar    1  UNL1       -0.0036
     22 C         141.8471  133.6724  155.2457 C.ar    1  UNL1       -0.0218
     23 C         141.5583  132.4431  154.4361 C.3     1  UNL1        0.0310
     24 C         142.8917  133.6335  156.3216 C.ar    1  UNL1       -0.0036
     25 C         143.1805  134.8627  157.1312 C.ar    1  UNL1        0.0079
@<TRIPOS>UNITY_ATOM_ATTR
6 1
charge 1
@<TRIPOS>BOND
     1    10    11    1
     2    11    12   ar
     3    12    13   ar
     4    13    14   ar
     5    14     8    1
     6     8     9    3
     7     9     1    1
     8     1     2   ar
     9     2     3   ar
    10     3     4   ar
    11     4     5   ar
    12     5    17    1
    13    17    18    3
    14    18    19    1
    15    19    20   ar
    16    20    21   ar
    17    21    22   ar
    18    22    23    1
    19    22    24   ar
    20    24    25   ar
    21     5     6   ar
    22     6     7    1
    23    14    15   ar
    24    15    16   ar
    25    16    11   ar
    26     6     1   ar
    27    25    19   ar
@<TRIPOS>MOLECULE
*****
 25 27 0 0 0
SMALL
GASTEIGER

@<TRIPOS>ATOM
      1 C         141.3177  144.3856  160.4629 C.ar    1  UNL1        0.2701
      2 C         140.5233  145.6400  160.2502 C.ar    1  UNL1        0.0787
      3 C         139.6635  146.1797  161.3545 C.ar    1  UNL1        0.0136
      4 C         139.5981  145.4648  162.6716 C.ar    1  UNL1        0.0787
      5 C         140.3924  144.2104  162.8843 C.ar    1  UNL1        0.2701
      6 N         141.2522  143.6707  161.7799 N.ar    1  UNL1       -0.1494
      7 C         142.0466  142.4162  161.9927 C.3     1  UNL1        0.4092
      8 C         143.0372  143.3063  158.2542 C.1     1  UNL1       -0.0540
      9 C         142.1774  143.8459  159.3585 C.1     1  UNL1        0.0086
     10 C         146.4764  141.1478  153.8368 C.3     1  UNL1        0.0310
     11 C         145.6166  141.6874  154.9412 C.ar    1  UNL1       -0.0218
     12 C         144.3511  142.4236  154.6149 C.ar    1  UNL1       -0.0036
     13 C         143.4913  142.9632  155.7192 C.ar    1  UNL1        0.0079
     14 C         143.8970  142.7667  157.1499 C.ar    1  UNL1        0.0421
     15 C         145.1625  142.0305  157.4761 C.ar    1  UNL1        0.0079
     16 C         146.0223  141.4909  156.3718 C.ar    1  UNL1       -0.0036
     17 C         140.3270  143.4955  164.2014 C.1     1  UNL1        0.0086
     18 C         140.2616  142.7807  165.5185 C.1     1  UNL1       -0.0540
     19 C         140.1962  142.0658  166.8356 C.ar    1  UNL1        0.0421
     20 C         139.7134  140.6468  166.8956 C.ar    1  UNL1        0.0079
     21 C         139.6480  139.9319  168.2126 C.ar    1  UNL1       -0.0036
     22 C         140.0654  140.6359  169.4696 C.ar    1  UNL1       -0.0218
     23 C         139.9999  139.9210  170.7867 C.3     1  UNL1        0.0310
     24 C         140.5482  142.0549  169.4096 C.ar    1  UNL1       -0.0036
     25 C         140.6136  142.7698  168.0926 C.ar    1  UNL1        0.0079
@<TRIPOS>UNITY_ATOM_ATTR
6 1
charge 1
@<TRIPOS>BOND
     1    10    11    1
     2    11    12   ar
     3    12    13   ar
     4    13    14   ar
     5    14     8    1
     6     8     9    3
     7     9     1    1
     8     1     2   ar
     9     2     3   ar
    10     3     4   ar
    11     4     5   ar
    12     5    17    1
    13    17    18    3
    14    18    19    1
    15    19    20   ar
    16    20    21   ar
    17    21    22   ar
    18    22    23    1
    19    22    24   ar
    20    24    25   ar
    21     5     6   ar
    22     6     7    1
    23    14    15   ar
    24    15    16   ar
    25    16    11   ar
    26     6     1   ar
    27    25    19   ar
@<TRIPOS>MOLECULE
*****
 25 27 0 0 0
SMALL
GASTEIGER

@<TRIPOS>ATOM
      1 C         142.4596  138.0525  158.0270 C.ar    1  UNL1        0.2701
      2 C         141.9011  139.0245  157.0304 C.ar    1  UNL1        0.0787
      3 C         141.4974  140.4007  157.4701 C.ar    1  UNL1        0.0136
      4 C         141.6522  140.8048  158.9062 C.ar    1  UNL1        0.0787
      5 C         142.2107  139.8327  159.9028 C.ar    1  UNL1        0.2701
      6 N         142.6144  138.4566  159.4632 N.ar    1  UNL1       -0.1494
      7 C         143.1729  137.4845  160.4598 C.3     1  UNL1        0.4092
      8 C         143.2669  135.3002  157.1478 C.1     1  UNL1       -0.0540
      9 C         142.8632  136.6763  157.5874 C.1     1  UNL1        0.0086
     10 C         144.8815  129.7956  155.3893 C.3     1  UNL1        0.0310
     11 C         144.4779  131.1717  155.8289 C.ar    1  UNL1       -0.0218
     12 C         144.9442  131.7035  157.1517 C.ar    1  UNL1       -0.0036
     13 C         144.5405  133.0796  157.5913 C.ar    1  UNL1        0.0079
     14 C         143.6705  133.9240  156.7081 C.ar    1  UNL1        0.0421
     15 C         143.2042  133.3923  155.3854 C.ar    1  UNL1        0.0079
     16 C         143.6079  132.0162  154.9457 C.ar    1  UNL1       -0.0036
     17 C         142.3655  140.2368  161.3391 C.1     1  UNL1        0.0086
     18 C         142.5204  140.6409  162.7753 C.1     1  UNL1       -0.0540
     19 C         142.6752  141.0450  164.2116 C.ar    1  UNL1        0.0421
     20 C         143.4014  142.3103  164.5606 C.ar    1  UNL1        0.0079
     21 C         143.5562  142.7144  165.9968 C.ar    1  UNL1       -0.0036
     22 C         142.9849  141.8532  167.0839 C.ar    1  UNL1       -0.0218
     23 C         143.1398  142.2573  168.5202 C.3     1  UNL1        0.0310
     24 C         142.2588  140.5880  166.7349 C.ar    1  UNL1       -0.0036
     25 C         142.1039  140.1839  165.2987 C.ar    1  UNL1        0.0079
@<TRIPOS>UNITY_ATOM_ATTR
6 1
charge 1
@<TRIPOS>BOND
     1    10    11    1
     2    11    12   ar
     3    12    13   ar
     4    13    14   ar
     5    14     8    1
     6     8     9    3
     7     9     1    1
     8     1     2   ar
     9     2     3   ar
    10     3     4   ar
    11     4     5   ar
    12     5    17    1
    13    17    18    3
    14    18    19    1
    15    19    20   ar
    16    20    21   ar
    17    21    22   ar
    18    22    23    1
    19    22    24   ar
    20    24    25   ar
    21     5     6   ar
    22     6     7    1
    23    14    15   ar
    24    15    16   ar
    25    16    11   ar
    26     6     1   ar
    27    25    19   ar
@<TRIPOS>MOLECULE
*****
 25 27 0 0 0
SMALL
GASTEIGER

@<TRIPOS>ATOM
      1 C         142.1880  140.0230  160.1302 C.ar    1  UNL1        0.2701
      2 C         141.6564  141.0524  159.1776 C.ar    1  UNL1        0.0787
      3 C         141.5000  140.7189  157.7235 C.ar    1  UNL1        0.0136
      4 C         141.8754  139.3559  157.2221 C.ar    1  UNL1        0.0787
      5 C         142.4070  138.3265  158.1748 C.ar    1  UNL1        0.2701
      6 N         142.5633  138.6601  159.6289 N.ar    1  UNL1       -0.1494
      7 C         143.0950  137.6306  160.5816 C.3     1  UNL1        0.4092
      8 C         142.5006  140.6902  163.0384 C.1     1  UNL1       -0.0540
      9 C         142.3443  140.3566  161.5843 C.1     1  UNL1        0.0086
     10 C         143.1259  142.0244  168.8546 C.3     1  UNL1        0.0310
     11 C         142.9696  141.6908  167.4006 C.ar    1  UNL1       -0.0218
     12 C         143.3833  142.6833  166.3547 C.ar    1  UNL1       -0.0036
     13 C         143.2270  142.3497  164.9007 C.ar    1  UNL1        0.0079
     14 C         142.6570  141.0237  164.4924 C.ar    1  UNL1        0.0421
     15 C         142.2432  140.0313  165.5383 C.ar    1  UNL1        0.0079
     16 C         142.3995  140.3648  166.9923 C.ar    1  UNL1       -0.0036
     17 C         142.7824  136.9635  157.6734 C.1     1  UNL1        0.0086
     18 C         143.1578  135.6005  157.1721 C.1     1  UNL1       -0.0540
     19 C         143.5331  134.2375  156.6707 C.ar    1  UNL1        0.0421
     20 C         144.3433  133.3173  157.5350 C.ar    1  UNL1        0.0079
     21 C         144.7187  131.9543  157.0337 C.ar    1  UNL1       -0.0036
     22 C         144.2839  131.5115  155.6682 C.ar    1  UNL1       -0.0218
     23 C         144.6592  130.1485  155.1668 C.3     1  UNL1        0.0310
     24 C         143.4737  132.4317  154.8039 C.ar    1  UNL1       -0.0036
     25 C         143.0984  133.7946  155.3052 C.ar    1  UNL1        0.0079
@<TRIPOS>UNITY_ATOM_ATTR
6 1
charge 1
@<TRIPOS>BOND
     1    10    11    1
     2    11    12   ar
     3    12    13   ar
     4    13    14   ar
     5    14     8    1
     6     8     9    3
     7     9     1    1
     8     1     2   ar
     9     2     3   ar
    10     3     4   ar
    11     4     5   ar
    12     5    17    1
    13    17    18    3
    14    18    19    1
    15    19    20   ar
    16    20    21   ar
    17    21    22   ar
    18    22    23    1
    19    22    24   ar
    20    24    25   ar
    21     5     6   ar
    22     6     7    1
    23    14    15   ar
    24    15    16   ar
    25    16    11   ar
    26     6     1   ar
    27    25    19   ar
@<TRIPOS>MOLECULE
*****
 25 27 0 0 0
SMALL
GASTEIGER

@<TRIPOS>ATOM
      1 C         141.2287  139.7266  160.1686 C.ar    1  UNL1        0.2701
      2 C         140.1201  138.8621  159.6455 C.ar    1  UNL1        0.0787
      3 C         138.9996  138.4486  160.5529 C.ar    1  UNL1        0.0136
      4 C         138.9877  138.8995  161.9835 C.ar    1  UNL1        0.0787
      5 C         140.0963  139.7640  162.5066 C.ar    1  UNL1        0.2701
      6 N         141.2168  140.1775  161.5991 N.ar    1  UNL1       -0.1494
      7 C         142.3255  141.0420  162.1223 C.3     1  UNL1        0.4092
      8 C         143.4698  140.5536  158.3537 C.1     1  UNL1       -0.0540
      9 C         142.3493  140.1401  159.2611 C.1     1  UNL1        0.0086
     10 C         147.9518  142.2077  154.7239 C.3     1  UNL1        0.0310
     11 C         146.8313  141.7942  155.6314 C.ar    1  UNL1       -0.0218
     12 C         146.5482  142.5778  156.8787 C.ar    1  UNL1       -0.0036
     13 C         145.4277  142.1643  157.7861 C.ar    1  UNL1        0.0079
     14 C         144.5903  140.9671  157.4463 C.ar    1  UNL1        0.0421
     15 C         144.8734  140.1835  156.1990 C.ar    1  UNL1        0.0079
     16 C         145.9939  140.5970  155.2915 C.ar    1  UNL1       -0.0036
     17 C         140.0845  140.2149  163.9372 C.1     1  UNL1        0.0086
     18 C         140.0727  140.6659  165.3677 C.1     1  UNL1       -0.0540
     19 C         140.0608  141.1168  166.7983 C.ar    1  UNL1        0.0421
     20 C         139.5650  140.1937  167.8716 C.ar    1  UNL1        0.0079
     21 C         139.5531  140.6445  169.3021 C.ar    1  UNL1       -0.0036
     22 C         140.0370  142.0186  169.6594 C.ar    1  UNL1       -0.0218
     23 C         140.0252  142.4696  171.0900 C.3     1  UNL1        0.0310
     24 C         140.5328  142.9418  168.5861 C.ar    1  UNL1       -0.0036
     25 C         140.5447  142.4909  167.1556 C.ar    1  UNL1        0.0079
@<TRIPOS>UNITY_ATOM_ATTR
6 1
charge 1
@<TRIPOS>BOND
     1    10    11    1
     2    11    12   ar
     3    12    13   ar
     4    13    14   ar
     5    14     8    1
     6     8     9    3
     7     9     1    1
     8     1     2   ar
     9     2     3   ar
    10     3     4   ar
    11     4     5   ar
    12     5    17    1
    13    17    18    3
    14    18    19    1
    15    19    20   ar
    16    20    21   ar
    17    21    22   ar
    18    22    23    1
    19    22    24   ar
    20    24    25   ar
    21     5     6   ar
    22     6     7    1
    23    14    15   ar
    24    15    16   ar
    25    16    11   ar
    26     6     1   ar
    27    25    19   ar
