@<TRIPOS>MOLECULE
*****
 24 26 0 0 0
SMALL
GASTEIGER

@<TRIPOS>ATOM
      1 C         140.0983  139.7994  167.5690 C.ar    1  UNL1        0.1453
      2 C         139.5889  140.5979  168.7322 C.ar    1  UNL1        0.0376
      3 C         140.5158  141.5111  169.4785 C.ar    1  UNL1        0.0063
      4 C         141.9521  141.6258  169.0615 C.ar    1  UNL1        0.0395
      5 C         142.4615  140.8274  167.8984 C.ar    1  UNL1        0.0063
      6 C         141.5346  139.9142  167.1521 C.ar    1  UNL1        0.0376
      7 C         142.8790  142.5391  169.8078 C.ar    1  UNL1        0.2058
      8 N         142.4757  143.5664  170.8237 N.ar    1  UNL1       -0.1077
      9 N         143.7194  144.2476  171.3130 N.ar    1  UNL1       -0.0450
     10 N         144.8913  143.6412  170.5995 N.ar    1  UNL1       -0.1495
     11 N         144.3719  142.5853  169.6693 N.ar    1  UNL1       -0.1297
     12 C         146.3299  144.0235  170.7839 C.3     1  UNL1        0.1681
     13 C         146.6817  145.3246  171.4423 C.3     1  UNL1        0.0938
     14 N         145.6466  146.4018  171.5758 N.3     1  UNL1       -0.3194
     15 H         145.3898  146.7433  170.6496 H       1  UNL1        0.1189
     16 H         146.0253  147.1707  172.1287 H       1  UNL1        0.1189
     17 O         139.1714  138.8862  166.8228 O.3     1  UNL1       -0.4535
     18 C         137.7072  140.0956  161.1312 C.3     1  UNL1        0.0310
     19 C         138.0732  139.7933  162.5541 C.ar    1  UNL1       -0.0217
     20 C         138.6419  138.4526  162.9136 C.ar    1  UNL1       -0.0011
     21 C         139.0080  138.1503  164.3365 C.ar    1  UNL1        0.0372
     22 C         138.8053  139.1886  165.3999 C.ar    1  UNL1        0.1453
     23 C         138.2366  140.5292  165.0404 C.ar    1  UNL1        0.0372
     24 C         137.8706  140.8315  163.6175 C.ar    1  UNL1       -0.0011
@<TRIPOS>BOND
     1    18    19    1
     2    19    20   ar
     3    20    21   ar
     4    21    22   ar
     5    22    17    1
     6    17     1    1
     7     1     2   ar
     8     2     3   ar
     9     3     4   ar
    10     4     7    1
    11     7     8   ar
    12     8     9   ar
    13     9    10   ar
    14    10    12    1
    15    12    13    1
    16    13    14    1
    17    10    11   ar
    18     4     5   ar
    19     5     6   ar
    20    22    23   ar
    21    23    24   ar
    22    24    19   ar
    23     6     1   ar
    24    11     7   ar
    25    14    15    1
    26    14    16    1
@<TRIPOS>MOLECULE
*****
 24 26 0 0 0
SMALL
GASTEIGER

@<TRIPOS>ATOM
      1 C         142.3615  141.8514  167.3879 C.ar    1  UNL1        0.1453
      2 C         142.3874  141.1668  168.7223 C.ar    1  UNL1        0.0376
      3 C         141.1623  140.4651  169.2291 C.ar    1  UNL1        0.0063
      4 C         139.9114  140.4480  168.4016 C.ar    1  UNL1        0.0395
      5 C         139.8855  141.1326  167.0672 C.ar    1  UNL1        0.0063
      6 C         141.1106  141.8343  166.5603 C.ar    1  UNL1        0.0376
      7 C         138.6863  139.7462  168.9084 C.ar    1  UNL1        0.2058
      8 N         137.8233  138.8023  168.1247 N.ar    1  UNL1       -0.1077
      9 N         136.7128  138.3379  169.0199 N.ar    1  UNL1       -0.0450
     10 N         136.8896  138.9948  170.3568 N.ar    1  UNL1       -0.1495
     11 N         138.1094  139.8652  170.2879 N.ar    1  UNL1       -0.1297
     12 C         136.0026  138.8132  171.5526 C.3     1  UNL1        0.1681
     13 C         136.0184  137.5177  172.3085 C.3     1  UNL1        0.0938
     14 N         137.1224  136.5286  172.0786 N.3     1  UNL1       -0.3194
     15 H         137.0642  136.1695  171.1257 H       1  UNL1        0.1189
     16 H         137.0304  135.7568  172.7391 H       1  UNL1        0.1189
     17 O         143.5865  142.5531  166.8811 O.3     1  UNL1       -0.4535
     18 C         144.7920  142.6168  161.0038 C.3     1  UNL1        0.0310
     19 C         144.4906  142.6009  162.4731 C.ar    1  UNL1       -0.0217
     20 C         144.5825  141.3173  163.2437 C.ar    1  UNL1       -0.0011
     21 C         144.2811  141.3014  164.7130 C.ar    1  UNL1        0.0372
     22 C         143.8879  142.5690  165.4118 C.ar    1  UNL1        0.1453
     23 C         143.7960  143.8527  164.6412 C.ar    1  UNL1        0.0372
     24 C         144.0974  143.8686  163.1719 C.ar    1  UNL1       -0.0011
@<TRIPOS>BOND
     1    18    19    1
     2    19    20   ar
     3    20    21   ar
     4    21    22   ar
     5    22    17    1
     6    17     1    1
     7     1     2   ar
     8     2     3   ar
     9     3     4   ar
    10     4     7    1
    11     7     8   ar
    12     8     9   ar
    13     9    10   ar
    14    10    12    1
    15    12    13    1
    16    13    14    1
    17    10    11   ar
    18     4     5   ar
    19     5     6   ar
    20    22    23   ar
    21    23    24   ar
    22    24    19   ar
    23     6     1   ar
    24    11     7   ar
    25    14    15    1
    26    14    16    1
@<TRIPOS>MOLECULE
*****
 24 26 0 0 0
SMALL
GASTEIGER

@<TRIPOS>ATOM
      1 C         139.3893  138.0672  164.5026 C.ar    1  UNL1        0.1453
      2 C         140.6848  138.7519  164.8237 C.ar    1  UNL1        0.0376
      3 C         140.8617  139.4413  166.1441 C.ar    1  UNL1        0.0063
      4 C         139.7431  139.4461  167.1434 C.ar    1  UNL1        0.0395
      5 C         138.4476  138.7615  166.8224 C.ar    1  UNL1        0.0063
      6 C         138.2707  138.0720  165.5020 C.ar    1  UNL1        0.0376
      7 C         139.9200  140.1355  168.4638 C.ar    1  UNL1        0.2058
      8 N         138.8797  140.2660  169.5366 N.ar    1  UNL1       -0.1077
      9 N         139.4850  141.0267  170.6791 N.ar    1  UNL1       -0.0450
     10 N         140.8993  141.3662  170.3123 N.ar    1  UNL1       -0.1495
     11 N         141.1681  140.8154  168.9432 N.ar    1  UNL1       -0.1297
     12 C         141.8736  142.1235  171.1649 C.3     1  UNL1        0.1681
     13 C         142.8595  143.0576  170.5281 C.3     1  UNL1        0.0938
     14 N         143.5397  144.1079  171.3552 N.3     1  UNL1       -0.3194
     15 H         142.8492  144.7845  171.6805 H       1  UNL1        0.1189
     16 H         144.2420  144.5843  170.7893 H       1  UNL1        0.1189
     17 O         139.2125  137.3778  163.1823 O.3     1  UNL1       -0.4535
     18 C         138.1116  140.5975  158.2404 C.3     1  UNL1        0.0310
     19 C         138.3868  139.7926  159.4759 C.ar    1  UNL1       -0.0217
     20 C         137.4034  139.7970  160.6085 C.ar    1  UNL1       -0.0011
     21 C         137.6786  138.9921  161.8439 C.ar    1  UNL1        0.0372
     22 C         138.9373  138.1827  161.9468 C.ar    1  UNL1        0.1453
     23 C         139.9207  138.1783  160.8143 C.ar    1  UNL1        0.0372
     24 C         139.6455  138.9832  159.5788 C.ar    1  UNL1       -0.0011
@<TRIPOS>BOND
     1    18    19    1
     2    19    20   ar
     3    20    21   ar
     4    21    22   ar
     5    22    17    1
     6    17     1    1
     7     1     2   ar
     8     2     3   ar
     9     3     4   ar
    10     4     7    1
    11     7     8   ar
    12     8     9   ar
    13     9    10   ar
    14    10    12    1
    15    12    13    1
    16    13    14    1
    17    10    11   ar
    18     4     5   ar
    19     5     6   ar
    20    22    23   ar
    21    23    24   ar
    22    24    19   ar
    23     6     1   ar
    24    11     7   ar
    25    14    15    1
    26    14    16    1
@<TRIPOS>MOLECULE
*****
 24 26 0 0 0
SMALL
GASTEIGER

@<TRIPOS>ATOM
      1 C         140.7071  144.4645  163.3627 C.ar    1  UNL1        0.1453
      2 C         141.7527  143.7791  162.5337 C.ar    1  UNL1        0.0376
      3 C         141.9035  144.1240  161.0817 C.ar    1  UNL1        0.0063
      4 C         141.0088  145.1542  160.4587 C.ar    1  UNL1        0.0395
      5 C         139.9633  145.8395  161.2876 C.ar    1  UNL1        0.0063
      6 C         139.8124  145.4947  162.7396 C.ar    1  UNL1        0.0376
      7 C         141.1597  145.4991  159.0066 C.ar    1  UNL1        0.2058
      8 N         142.4363  145.4624  158.2198 N.ar    1  UNL1       -0.1077
      9 N         142.1261  145.8818  156.8134 N.ar    1  UNL1       -0.0450
     10 N         140.6578  146.1776  156.7311 N.ar    1  UNL1       -0.1495
     11 N         140.0606  145.9410  158.0865 N.ar    1  UNL1       -0.1297
     12 C         139.9169  146.6304  155.5080 C.3     1  UNL1        0.1681
     13 C         139.1661  147.9289  155.5237 C.3     1  UNL1        0.0938
     14 N         138.5833  148.4430  156.8066 N.3     1  UNL1       -0.3194
     15 H         137.8436  147.8144  157.1200 H       1  UNL1        0.1189
     16 H         138.1964  149.3745  156.6552 H       1  UNL1        0.1189
     17 O         140.5563  144.1196  164.8146 O.3     1  UNL1       -0.4535
     18 C         138.1079  138.8809  166.4152 C.3     1  UNL1        0.0310
     19 C         138.7200  140.1906  166.0151 C.ar    1  UNL1       -0.0217
     20 C         139.8390  140.7742  166.8256 C.ar    1  UNL1       -0.0011
     21 C         140.4511  142.0839  166.4255 C.ar    1  UNL1        0.0372
     22 C         139.9442  142.8099  165.2148 C.ar    1  UNL1        0.1453
     23 C         138.8251  142.2263  164.4043 C.ar    1  UNL1        0.0372
     24 C         138.2130  140.9166  164.8044 C.ar    1  UNL1       -0.0011
@<TRIPOS>BOND
     1    18    19    1
     2    19    20   ar
     3    20    21   ar
     4    21    22   ar
     5    22    17    1
     6    17     1    1
     7     1     2   ar
     8     2     3   ar
     9     3     4   ar
    10     4     7    1
    11     7     8   ar
    12     8     9   ar
    13     9    10   ar
    14    10    12    1
    15    12    13    1
    16    13    14    1
    17    10    11   ar
    18     4     5   ar
    19     5     6   ar
    20    22    23   ar
    21    23    24   ar
    22    24    19   ar
    23     6     1   ar
    24    11     7   ar
    25    14    15    1
    26    14    16    1
@<TRIPOS>MOLECULE
*****
 24 26 0 0 0
SMALL
GASTEIGER

@<TRIPOS>ATOM
      1 C         138.7035  139.1187  165.5255 C.ar    1  UNL1        0.1453
      2 C         139.3816  137.9898  164.8072 C.ar    1  UNL1        0.0376
      3 C         139.4450  137.9849  163.3086 C.ar    1  UNL1        0.0063
      4 C         138.8304  139.1089  162.5282 C.ar    1  UNL1        0.0395
      5 C         138.1523  140.2377  163.2465 C.ar    1  UNL1        0.0063
      6 C         138.0889  140.2427  164.7452 C.ar    1  UNL1        0.0376
      7 C         138.8938  139.1040  161.0295 C.ar    1  UNL1        0.2058
      8 N         137.9582  139.8252  160.1051 N.ar    1  UNL1       -0.1077
      9 N         138.3901  139.5440  158.6964 N.ar    1  UNL1       -0.0450
     10 N         139.5927  138.6489  158.7502 N.ar    1  UNL1       -0.1495
     11 N         139.9040  138.3770  160.1922 N.ar    1  UNL1       -0.1297
     12 C         140.3508  138.1189  157.5695 C.3     1  UNL1        0.1681
     13 C         139.6510  137.9162  156.2583 C.3     1  UNL1        0.0938
     14 N         138.7661  136.7219  156.0571 N.3     1  UNL1       -0.3194
     15 H         139.3304  135.8725  156.0825 H       1  UNL1        0.1189
     16 H         138.2993  136.7931  155.1531 H       1  UNL1        0.1189
     17 O         138.6401  139.1236  167.0241 O.3     1  UNL1       -0.4535
     18 C         141.6386  143.2828  170.1403 C.3     1  UNL1        0.0310
     19 C         140.8890  142.2430  169.3612 C.ar    1  UNL1       -0.0217
     20 C         141.1186  142.1010  167.8858 C.ar    1  UNL1       -0.0011
     21 C         140.3690  141.0612  167.1067 C.ar    1  UNL1        0.0372
     22 C         139.3897  140.1634  167.8032 C.ar    1  UNL1        0.1453
     23 C         139.1601  140.3054  169.2786 C.ar    1  UNL1        0.0372
     24 C         139.9098  141.3452  170.0577 C.ar    1  UNL1       -0.0011
@<TRIPOS>BOND
     1    18    19    1
     2    19    20   ar
     3    20    21   ar
     4    21    22   ar
     5    22    17    1
     6    17     1    1
     7     1     2   ar
     8     2     3   ar
     9     3     4   ar
    10     4     7    1
    11     7     8   ar
    12     8     9   ar
    13     9    10   ar
    14    10    12    1
    15    12    13    1
    16    13    14    1
    17    10    11   ar
    18     4     5   ar
    19     5     6   ar
    20    22    23   ar
    21    23    24   ar
    22    24    19   ar
    23     6     1   ar
    24    11     7   ar
    25    14    15    1
    26    14    16    1
@<TRIPOS>MOLECULE
*****
 24 26 0 0 0
SMALL
GASTEIGER

@<TRIPOS>ATOM
      1 C         143.2841  138.8141  165.1633 C.ar    1  UNL1        0.1453
      2 C         144.3882  139.4725  164.3902 C.ar    1  UNL1        0.0376
      3 C         144.3975  139.4061  162.8917 C.ar    1  UNL1        0.0063
      4 C         143.3027  138.6813  162.1663 C.ar    1  UNL1        0.0395
      5 C         142.1987  138.0230  162.9393 C.ar    1  UNL1        0.0063
      6 C         142.1893  138.0893  164.4378 C.ar    1  UNL1        0.0376
      7 C         143.3121  138.6150  160.6677 C.ar    1  UNL1        0.2058
      8 N         144.0143  139.5689  159.7474 N.ar    1  UNL1       -0.1077
      9 N         143.7571  139.1265  158.3373 N.ar    1  UNL1       -0.0450
     10 N         142.8960  137.8993  158.3863 N.ar    1  UNL1       -0.1495
     11 N         142.6210  137.5831  159.8265 N.ar    1  UNL1       -0.1297
     12 C         142.3974  137.1243  157.2028 C.3     1  UNL1        0.1681
     13 C         143.3732  136.5003  156.2496 C.3     1  UNL1        0.0938
     14 N         144.4929  137.3193  155.6794 N.3     1  UNL1       -0.3194
     15 H         144.1090  138.0480  155.0777 H       1  UNL1        0.1189
     16 H         145.1103  136.7181  155.1336 H       1  UNL1        0.1189
     17 O         143.2747  138.8805  166.6618 O.3     1  UNL1       -0.4535
     18 C         140.4965  143.4109  169.4468 C.3     1  UNL1        0.0310
     19 C         141.1911  142.2783  168.7506 C.ar    1  UNL1       -0.0217
     20 C         141.7522  141.1387  169.5483 C.ar    1  UNL1       -0.0011
     21 C         142.4468  140.0061  168.8520 C.ar    1  UNL1        0.0372
     22 C         142.5802  140.0131  167.3580 C.ar    1  UNL1        0.1453
     23 C         142.0190  141.1526  166.5603 C.ar    1  UNL1        0.0372
     24 C         141.3245  142.2852  167.2566 C.ar    1  UNL1       -0.0011
@<TRIPOS>BOND
     1    18    19    1
     2    19    20   ar
     3    20    21   ar
     4    21    22   ar
     5    22    17    1
     6    17     1    1
     7     1     2   ar
     8     2     3   ar
     9     3     4   ar
    10     4     7    1
    11     7     8   ar
    12     8     9   ar
    13     9    10   ar
    14    10    12    1
    15    12    13    1
    16    13    14    1
    17    10    11   ar
    18     4     5   ar
    19     5     6   ar
    20    22    23   ar
    21    23    24   ar
    22    24    19   ar
    23     6     1   ar
    24    11     7   ar
    25    14    15    1
    26    14    16    1
@<TRIPOS>MOLECULE
*****
 24 26 0 0 0
SMALL
GASTEIGER

@<TRIPOS>ATOM
      1 C         138.5636  138.6523  162.1313 C.ar    1  UNL1        0.1453
      2 C         138.1110  139.9765  162.6716 C.ar    1  UNL1        0.0376
      3 C         138.1522  140.2377  164.1481 C.ar    1  UNL1        0.0063
      4 C         138.6459  139.1748  165.0843 C.ar    1  UNL1        0.0395
      5 C         139.0984  137.8507  164.5441 C.ar    1  UNL1        0.0063
      6 C         139.0573  137.5894  163.0675 C.ar    1  UNL1        0.0376
      7 C         138.6870  139.4360  166.5609 C.ar    1  UNL1        0.2058
      8 N         137.7952  138.8104  167.5921 N.ar    1  UNL1       -0.1077
      9 N         138.1842  139.3565  168.9340 N.ar    1  UNL1       -0.0450
     10 N         139.3164  140.3196  168.7320 N.ar    1  UNL1       -0.1495
     11 N         139.6271  140.3687  167.2654 N.ar    1  UNL1       -0.1297
     12 C         140.0151  141.0970  169.8078 C.3     1  UNL1        0.1681
     13 C         140.4747  140.4037  171.0561 C.3     1  UNL1        0.0938
     14 N         139.7230  139.2131  171.5729 N.3     1  UNL1       -0.3194
     15 H         138.7916  139.5024  171.8715 H       1  UNL1        0.1189
     16 H         140.2247  138.8120  172.3652 H       1  UNL1        0.1189
     17 O         138.5224  138.3911  160.6548 O.3     1  UNL1       -0.4535
     18 C         143.2717  139.7235  157.2389 C.3     1  UNL1        0.0310
     19 C         142.0844  139.3904  158.0929 C.ar    1  UNL1       -0.0217
     20 C         142.2841  138.8076  159.4605 C.ar    1  UNL1       -0.0011
     21 C         141.0967  138.4745  160.3145 C.ar    1  UNL1        0.0372
     22 C         139.7097  138.7242  159.8008 C.ar    1  UNL1        0.1453
     23 C         139.5101  139.3069  158.4332 C.ar    1  UNL1        0.0372
     24 C         140.6974  139.6400  157.5792 C.ar    1  UNL1       -0.0011
@<TRIPOS>BOND
     1    18    19    1
     2    19    20   ar
     3    20    21   ar
     4    21    22   ar
     5    22    17    1
     6    17     1    1
     7     1     2   ar
     8     2     3   ar
     9     3     4   ar
    10     4     7    1
    11     7     8   ar
    12     8     9   ar
    13     9    10   ar
    14    10    12    1
    15    12    13    1
    16    13    14    1
    17    10    11   ar
    18     4     5   ar
    19     5     6   ar
    20    22    23   ar
    21    23    24   ar
    22    24    19   ar
    23     6     1   ar
    24    11     7   ar
    25    14    15    1
    26    14    16    1
@<TRIPOS>MOLECULE
*****
 24 26 0 0 0
SMALL
GASTEIGER

@<TRIPOS>ATOM
      1 C         142.8002  138.8739  165.5835 C.ar    1  UNL1        0.1453
      2 C         141.8443  137.9915  164.8367 C.ar    1  UNL1        0.0376
      3 C         141.8793  137.9472  163.3378 C.ar    1  UNL1        0.0063
      4 C         142.8702  138.7852  162.5856 C.ar    1  UNL1        0.0395
      5 C         143.8261  139.6676  163.3323 C.ar    1  UNL1        0.0063
      6 C         143.7911  139.7120  164.8313 C.ar    1  UNL1        0.0376
      7 C         142.9052  138.7409  161.0866 C.ar    1  UNL1        0.2058
      8 N         144.1093  138.9829  160.2253 N.ar    1  UNL1       -0.1077
      9 N         143.6905  138.8383  158.7922 N.ar    1  UNL1       -0.0450
     10 N         142.2277  138.5070  158.7678 N.ar    1  UNL1       -0.1495
     11 N         141.7424  138.4468  160.1859 N.ar    1  UNL1       -0.1297
     12 C         141.3963  138.2764  157.5409 C.3     1  UNL1        0.1681
     13 C         139.9375  137.9534  157.6732 C.3     1  UNL1        0.0938
     14 N         139.2713  137.0658  156.6642 N.3     1  UNL1       -0.3194
     15 H         139.2614  137.5307  155.7563 H       1  UNL1        0.1189
     16 H         138.3136  136.8750  156.9588 H       1  UNL1        0.1189
     17 O         142.7652  138.9182  167.0824 O.3     1  UNL1       -0.4535
     18 C         140.3751  143.6523  169.8888 C.3     1  UNL1        0.0310
     19 C         140.9726  142.4688  169.1872 C.ar    1  UNL1       -0.0217
     20 C         142.4295  142.4653  168.8303 C.ar    1  UNL1       -0.0011
     21 C         143.0271  141.2818  168.1287 C.ar    1  UNL1        0.0372
     22 C         142.1677  140.1017  167.7840 C.ar    1  UNL1        0.1453
     23 C         140.7108  140.1052  168.1409 C.ar    1  UNL1        0.0372
     24 C         140.1133  141.2887  168.8425 C.ar    1  UNL1       -0.0011
@<TRIPOS>BOND
     1    18    19    1
     2    19    20   ar
     3    20    21   ar
     4    21    22   ar
     5    22    17    1
     6    17     1    1
     7     1     2   ar
     8     2     3   ar
     9     3     4   ar
    10     4     7    1
    11     7     8   ar
    12     8     9   ar
    13     9    10   ar
    14    10    12    1
    15    12    13    1
    16    13    14    1
    17    10    11   ar
    18     4     5   ar
    19     5     6   ar
    20    22    23   ar
    21    23    24   ar
    22    24    19   ar
    23     6     1   ar
    24    11     7   ar
    25    14    15    1
    26    14    16    1
@<TRIPOS>MOLECULE
*****
 24 26 0 0 0
SMALL
GASTEIGER

@<TRIPOS>ATOM
      1 C         138.8777  138.3899  162.5732 C.ar    1  UNL1        0.1453
      2 C         137.9296  139.5523  162.5772 C.ar    1  UNL1        0.0376
      3 C         137.6643  140.3081  161.3090 C.ar    1  UNL1        0.0063
      4 C         138.3471  139.9015  160.0367 C.ar    1  UNL1        0.0395
      5 C         139.2951  138.7391  160.0327 C.ar    1  UNL1        0.0063
      6 C         139.5604  137.9833  161.3010 C.ar    1  UNL1        0.0376
      7 C         138.0818  140.6574  158.7685 C.ar    1  UNL1        0.2058
      8 N         138.9431  141.7417  158.1918 N.ar    1  UNL1       -0.1077
      9 N         138.3022  142.2161  156.9212 N.ar    1  UNL1       -0.0450
     10 N         137.0450  141.4249  156.7127 N.ar    1  UNL1       -0.1495
     11 N         136.9087  140.4616  157.8544 N.ar    1  UNL1       -0.1297
     12 C         136.0914  141.5714  155.5642 C.3     1  UNL1        0.1681
     13 C         134.7421  140.9187  155.6216 C.3     1  UNL1        0.0938
     14 N         134.5787  139.5927  156.3034 N.3     1  UNL1       -0.3194
     15 H         135.0916  138.8789  155.7860 H       1  UNL1        0.1189
     16 H         133.5895  139.3457  156.3339 H       1  UNL1        0.1189
     17 O         139.1429  137.6341  163.8414 O.3     1  UNL1       -0.4535
     18 C         139.5556  140.5740  169.0555 C.3     1  UNL1        0.0310
     19 C         139.4524  139.8390  167.7519 C.ar    1  UNL1       -0.0217
     20 C         138.2083  139.0692  167.4215 C.ar    1  UNL1       -0.0011
     21 C         138.1051  138.3342  166.1179 C.ar    1  UNL1        0.0372
     22 C         139.2461  138.3691  165.1449 C.ar    1  UNL1        0.1453
     23 C         140.4903  139.1389  165.4754 C.ar    1  UNL1        0.0372
     24 C         140.5934  139.8739  166.7789 C.ar    1  UNL1       -0.0011
@<TRIPOS>BOND
     1    18    19    1
     2    19    20   ar
     3    20    21   ar
     4    21    22   ar
     5    22    17    1
     6    17     1    1
     7     1     2   ar
     8     2     3   ar
     9     3     4   ar
    10     4     7    1
    11     7     8   ar
    12     8     9   ar
    13     9    10   ar
    14    10    12    1
    15    12    13    1
    16    13    14    1
    17    10    11   ar
    18     4     5   ar
    19     5     6   ar
    20    22    23   ar
    21    23    24   ar
    22    24    19   ar
    23     6     1   ar
    24    11     7   ar
    25    14    15    1
    26    14    16    1
