@<TRIPOS>MOLECULE
*****
 19 19 0 0 0
SMALL
GASTEIGER

@<TRIPOS>ATOM
      1 C         137.4554  141.7442  163.1077 C.2     1  UNL1       -0.0134
      2 C         137.9368  143.1062  162.7034 C.2     1  UNL1       -0.0290
      3 C         137.7347  140.5594  162.2313 C.3     1  UNL1        0.0985
      4 N         138.8783  139.6429  162.5510 N.3     1  UNL1       -0.2690
      5 C         140.2357  139.9065  161.9698 C.3     1  UNL1        0.0724
      6 C         141.0575  141.0555  162.4746 C.3     1  UNL1        0.0188
      7 C         138.6644  138.4628  163.4520 C.3     1  UNL1        0.0724
      8 C         139.0634  138.5395  164.8959 C.3     1  UNL1        0.0173
      9 C         137.7077  138.6335  167.1102 C.3     1  UNL1        0.0000
     10 C         138.2157  139.3045  165.8685 C.3     1  UNL1        0.0014
     11 C         137.6575  144.2910  163.5799 C.3     1  UNL1        0.0304
     12 C         138.4269  144.4798  164.8536 C.3     1  UNL1        0.0310
     13 C         139.8375  143.9804  164.9587 C.ar    1  UNL1       -0.0218
     14 C         140.1656  142.8501  165.8886 C.ar    1  UNL1       -0.0034
     15 C         141.5761  142.3508  165.9937 C.ar    1  UNL1        0.0111
     16 C         142.6585  142.9817  165.1689 C.ar    1  UNL1        0.0577
     17 CL        144.0691  142.4824  165.2741 Cl      1  UNL1       -0.0822
     18 C         142.3304  144.1120  164.2390 C.ar    1  UNL1        0.0111
     19 C         140.9199  144.6113  164.1339 C.ar    1  UNL1       -0.0034
@<TRIPOS>BOND
     1     9    10    1
     2    10     8    1
     3     8     7    1
     4     7     4    1
     5     4     5    1
     6     5     6    1
     7     4     3    1
     8     3     1    1
     9     1     2    2
    10     2    11    1
    11    11    12    1
    12    12    13    1
    13    13    14   ar
    14    14    15   ar
    15    15    16   ar
    16    16    17    1
    17    16    18   ar
    18    18    19   ar
    19    19    13   ar
@<TRIPOS>MOLECULE
*****
 19 19 0 0 0
SMALL
GASTEIGER

@<TRIPOS>ATOM
      1 C         140.1853  140.3769  166.9648 C.2     1  UNL1       -0.0134
      2 C         138.9046  140.1232  166.2262 C.2     1  UNL1       -0.0290
      3 C         140.9627  141.6339  166.7081 C.3     1  UNL1        0.0985
      4 N         141.0739  142.1754  165.3138 N.3     1  UNL1       -0.2690
      5 C         141.6483  141.3227  164.2216 C.3     1  UNL1        0.0724
      6 C         141.0486  141.3600  162.8471 C.3     1  UNL1        0.0188
      7 C         140.6107  143.5698  165.0116 C.3     1  UNL1        0.0724
      8 C         139.2565  144.0256  165.4678 C.3     1  UNL1        0.0173
      9 C         137.6557  142.6858  163.9210 C.3     1  UNL1        0.0000
     10 C         138.0943  143.9892  164.5201 C.3     1  UNL1        0.0014
     11 C         138.1272  138.8663  166.4829 C.3     1  UNL1        0.0304
     12 C         138.4510  137.6154  165.7211 C.3     1  UNL1        0.0310
     13 C         139.3579  137.6775  164.5279 C.ar    1  UNL1       -0.0218
     14 C         140.8394  137.5205  164.7028 C.ar    1  UNL1       -0.0034
     15 C         141.7462  137.5825  163.5096 C.ar    1  UNL1        0.0111
     16 C         141.1717  137.8017  162.1414 C.ar    1  UNL1        0.0577
     17 CL        142.0785  137.8637  160.9482 Cl      1  UNL1       -0.0822
     18 C         139.6902  137.9587  161.9665 C.ar    1  UNL1        0.0111
     19 C         138.7834  137.8966  163.1597 C.ar    1  UNL1       -0.0034
@<TRIPOS>BOND
     1     9    10    1
     2    10     8    1
     3     8     7    1
     4     7     4    1
     5     4     5    1
     6     5     6    1
     7     4     3    1
     8     3     1    1
     9     1     2    2
    10     2    11    1
    11    11    12    1
    12    12    13    1
    13    13    14   ar
    14    14    15   ar
    15    15    16   ar
    16    16    17    1
    17    16    18   ar
    18    18    19   ar
    19    19    13   ar
@<TRIPOS>MOLECULE
*****
 19 19 0 0 0
SMALL
GASTEIGER

@<TRIPOS>ATOM
      1 C         141.4705  145.0497  162.5312 C.2     1  UNL1       -0.0134
      2 C         142.2344  145.2260  163.8101 C.2     1  UNL1       -0.0290
      3 C         140.0155  145.4092  162.4710 C.3     1  UNL1        0.0985
      4 N         138.9730  144.3627  162.7314 N.3     1  UNL1       -0.2690
      5 C         138.7101  143.2955  161.7107 C.3     1  UNL1        0.0724
      6 C         137.8601  142.1115  162.0653 C.3     1  UNL1        0.0188
      7 C         138.1932  144.3834  164.0127 C.3     1  UNL1        0.0724
      8 C         138.8978  144.6187  165.3158 C.3     1  UNL1        0.0173
      9 C         139.6839  142.1427  165.3524 C.3     1  UNL1        0.0000
     10 C         139.7196  143.5257  165.9321 C.3     1  UNL1        0.0014
     11 C         143.6894  144.8664  163.8703 C.3     1  UNL1        0.0304
     12 C         144.2352  144.1466  165.0677 C.3     1  UNL1        0.0310
     13 C         143.9134  142.6974  165.2827 C.ar    1  UNL1       -0.0218
     14 C         143.1716  142.2685  166.5139 C.ar    1  UNL1       -0.0034
     15 C         142.8498  140.8193  166.7289 C.ar    1  UNL1        0.0111
     16 C         143.2698  139.7990  165.7127 C.ar    1  UNL1        0.0577
     17 CL        142.9480  138.3497  165.9277 Cl      1  UNL1       -0.0822
     18 C         144.0116  140.2279  164.4816 C.ar    1  UNL1        0.0111
     19 C         144.3334  141.6771  164.2666 C.ar    1  UNL1       -0.0034
@<TRIPOS>BOND
     1     9    10    1
     2    10     8    1
     3     8     7    1
     4     7     4    1
     5     4     5    1
     6     5     6    1
     7     4     3    1
     8     3     1    1
     9     1     2    2
    10     2    11    1
    11    11    12    1
    12    12    13    1
    13    13    14   ar
    14    14    15   ar
    15    15    16   ar
    16    16    17    1
    17    16    18   ar
    18    18    19   ar
    19    19    13   ar
@<TRIPOS>MOLECULE
*****
 19 19 0 0 0
SMALL
GASTEIGER

@<TRIPOS>ATOM
      1 C         137.9802  140.3616  163.5957 C.2     1  UNL1       -0.0134
      2 C         138.1539  140.2677  165.0827 C.2     1  UNL1       -0.0290
      3 C         137.6709  141.6840  162.9588 C.3     1  UNL1        0.0985
      4 N         138.4767  142.8968  163.3192 N.3     1  UNL1       -0.2690
      5 C         137.8837  143.9569  164.1992 C.3     1  UNL1        0.0724
      6 C         138.7572  144.7112  165.1575 C.3     1  UNL1        0.0188
      7 C         139.8755  143.0495  162.7995 C.3     1  UNL1        0.0724
      8 C         140.9695  142.1646  163.3193 C.3     1  UNL1        0.0173
      9 C         142.6438  142.8405  165.1874 C.3     1  UNL1        0.0000
     10 C         141.3470  142.2124  164.7701 C.3     1  UNL1        0.0014
     11 C         138.4632  138.9453  165.7195 C.3     1  UNL1        0.0304
     12 C         139.4173  137.9976  165.0549 C.3     1  UNL1        0.0310
     13 C         140.8513  138.3916  164.8590 C.ar    1  UNL1       -0.0218
     14 C         141.6790  138.8191  166.0347 C.ar    1  UNL1       -0.0034
     15 C         143.1130  139.2131  165.8388 C.ar    1  UNL1        0.0111
     16 C         143.7193  139.1796  164.4672 C.ar    1  UNL1        0.0577
     17 CL        145.1533  139.5736  164.2713 Cl      1  UNL1       -0.0822
     18 C         142.8917  138.7521  163.2916 C.ar    1  UNL1        0.0111
     19 C         141.4576  138.3581  163.4875 C.ar    1  UNL1       -0.0034
@<TRIPOS>BOND
     1     9    10    1
     2    10     8    1
     3     8     7    1
     4     7     4    1
     5     4     5    1
     6     5     6    1
     7     4     3    1
     8     3     1    1
     9     1     2    2
    10     2    11    1
    11    11    12    1
    12    12    13    1
    13    13    14   ar
    14    14    15   ar
    15    15    16   ar
    16    16    17    1
    17    16    18   ar
    18    18    19   ar
    19    19    13   ar
@<TRIPOS>MOLECULE
*****
 19 19 0 0 0
SMALL
GASTEIGER

@<TRIPOS>ATOM
      1 C         140.7883  141.6544  167.2799 C.2     1  UNL1       -0.0134
      2 C         140.4821  140.2053  167.5175 C.2     1  UNL1       -0.0290
      3 C         142.1077  142.0551  166.6893 C.3     1  UNL1        0.0985
      4 N         142.3085  142.0116  165.2035 N.3     1  UNL1       -0.2690
      5 C         141.7983  143.1305  164.3446 C.3     1  UNL1        0.0724
      6 C         140.3868  143.1030  163.8375 C.3     1  UNL1        0.0188
      7 C         143.0196  140.8491  164.5765 C.3     1  UNL1        0.0724
      8 C         142.2642  139.5946  164.2513 C.3     1  UNL1        0.0173
      9 C         143.4951  138.3526  166.1729 C.3     1  UNL1        0.0000
     10 C         142.4717  138.3592  165.0762 C.3     1  UNL1        0.0014
     11 C         139.1628  139.8046  168.1081 C.3     1  UNL1        0.0304
     12 C         138.1418  139.1071  167.2589 C.3     1  UNL1        0.0310
     13 C         138.3755  138.9451  165.7861 C.ar    1  UNL1       -0.0218
     14 C         138.1366  140.0987  164.8576 C.ar    1  UNL1       -0.0034
     15 C         138.3702  139.9368  163.3847 C.ar    1  UNL1        0.0111
     16 C         138.8428  138.6213  162.8405 C.ar    1  UNL1        0.0577
     17 CL        139.0765  138.4594  161.3677 Cl      1  UNL1       -0.0822
     18 C         139.0818  137.4678  163.7690 C.ar    1  UNL1        0.0111
     19 C         138.8481  137.6297  165.2419 C.ar    1  UNL1       -0.0034
@<TRIPOS>BOND
     1     9    10    1
     2    10     8    1
     3     8     7    1
     4     7     4    1
     5     4     5    1
     6     5     6    1
     7     4     3    1
     8     3     1    1
     9     1     2    2
    10     2    11    1
    11    11    12    1
    12    12    13    1
    13    13    14   ar
    14    14    15   ar
    15    15    16   ar
    16    16    17    1
    17    16    18   ar
    18    18    19   ar
    19    19    13   ar
@<TRIPOS>MOLECULE
*****
 19 19 0 0 0
SMALL
GASTEIGER

@<TRIPOS>ATOM
      1 C         143.9881  143.5375  164.2654 C.2     1  UNL1       -0.0134
      2 C         144.4762  142.8152  163.0447 C.2     1  UNL1       -0.0290
      3 C         142.8157  144.4680  164.1676 C.3     1  UNL1        0.0985
      4 N         141.4206  143.9329  164.2989 N.3     1  UNL1       -0.2690
      5 C         141.2001  142.4907  164.6475 C.3     1  UNL1        0.0724
      6 C         140.8972  141.4957  163.5667 C.3     1  UNL1        0.0188
      7 C         140.2458  144.8400  164.0815 C.3     1  UNL1        0.0724
      8 C         139.0634  144.7694  165.0017 C.3     1  UNL1        0.0173
      9 C         137.7056  143.5276  163.1675 C.3     1  UNL1        0.0000
     10 C         137.8120  144.0687  164.5625 C.3     1  UNL1        0.0014
     11 C         145.6487  141.8847  163.1425 C.3     1  UNL1        0.0304
     12 C         145.5927  140.7018  164.0631 C.3     1  UNL1        0.0310
     13 C         144.4169  139.7715  164.0182 C.ar    1  UNL1       -0.0218
     14 C         143.9940  139.1595  162.7157 C.ar    1  UNL1       -0.0034
     15 C         142.8182  138.2292  162.6708 C.ar    1  UNL1        0.0111
     16 C         142.0653  137.9108  163.9285 C.ar    1  UNL1        0.0577
     17 CL        140.8895  136.9805  163.8836 Cl      1  UNL1       -0.0822
     18 C         142.4882  138.5228  165.2310 C.ar    1  UNL1        0.0111
     19 C         143.6640  139.4531  165.2759 C.ar    1  UNL1       -0.0034
@<TRIPOS>BOND
     1     9    10    1
     2    10     8    1
     3     8     7    1
     4     7     4    1
     5     4     5    1
     6     5     6    1
     7     4     3    1
     8     3     1    1
     9     1     2    2
    10     2    11    1
    11    11    12    1
    12    12    13    1
    13    13    14   ar
    14    14    15   ar
    15    15    16   ar
    16    16    17    1
    17    16    18   ar
    18    18    19   ar
    19    19    13   ar
@<TRIPOS>MOLECULE
*****
 19 19 0 0 0
SMALL
GASTEIGER

@<TRIPOS>ATOM
      1 C         139.4577  140.9151  165.9773 C.2     1  UNL1       -0.0134
      2 C         139.1127  139.7601  166.8702 C.2     1  UNL1       -0.0290
      3 C         140.5369  141.8766  166.3781 C.3     1  UNL1        0.0985
      4 N         141.9774  141.4696  166.2827 N.3     1  UNL1       -0.2690
      5 C         142.6183  140.7105  167.4066 C.3     1  UNL1        0.0724
      6 C         142.7924  139.2241  167.3043 C.3     1  UNL1        0.0188
      7 C         142.7772  141.8216  165.0634 C.3     1  UNL1        0.0724
      8 C         142.7686  140.9103  163.8720 C.3     1  UNL1        0.0173
      9 C         145.0046  139.6596  164.3032 C.3     1  UNL1        0.0000
     10 C         144.0552  140.3352  163.3585 C.3     1  UNL1        0.0014
     11 C         138.0335  138.7985  166.4693 C.3     1  UNL1        0.0304
     12 C         138.3826  137.5539  165.7086 C.3     1  UNL1        0.0310
     13 C         139.3115  137.6290  164.5332 C.ar    1  UNL1       -0.0218
     14 C         138.7740  137.9596  163.1724 C.ar    1  UNL1       -0.0034
     15 C         139.7029  138.0347  161.9970 C.ar    1  UNL1        0.0111
     16 C         141.1693  137.7792  162.1824 C.ar    1  UNL1        0.0577
     17 CL        142.0982  137.8543  161.0070 Cl      1  UNL1       -0.0822
     18 C         141.7067  137.4486  163.5432 C.ar    1  UNL1        0.0111
     19 C         140.7779  137.3735  164.7186 C.ar    1  UNL1       -0.0034
@<TRIPOS>BOND
     1     9    10    1
     2    10     8    1
     3     8     7    1
     4     7     4    1
     5     4     5    1
     6     5     6    1
     7     4     3    1
     8     3     1    1
     9     1     2    2
    10     2    11    1
    11    11    12    1
    12    12    13    1
    13    13    14   ar
    14    14    15   ar
    15    15    16   ar
    16    16    17    1
    17    16    18   ar
    18    18    19   ar
    19    19    13   ar
@<TRIPOS>MOLECULE
*****
 19 19 0 0 0
SMALL
GASTEIGER

@<TRIPOS>ATOM
      1 C         139.2519  139.9141  168.3860 C.2     1  UNL1       -0.0134
      2 C         139.0141  139.6949  166.9212 C.2     1  UNL1       -0.0290
      3 C         140.2439  140.9441  168.8389 C.3     1  UNL1        0.0985
      4 N         141.4829  141.1977  168.0323 N.3     1  UNL1       -0.2690
      5 C         142.6507  140.2622  168.1373 C.3     1  UNL1        0.0724
      6 C         142.8048  139.1414  167.1524 C.3     1  UNL1        0.0188
      7 C         141.5540  142.3868  167.1206 C.3     1  UNL1        0.0724
      8 C         142.5139  142.3918  165.9680 C.3     1  UNL1        0.0173
      9 C         141.1079  141.0504  164.2436 C.3     1  UNL1        0.0000
     10 C         142.0066  142.2066  164.5687 C.3     1  UNL1        0.0014
     11 C         138.0221  138.6649  166.4684 C.3     1  UNL1        0.0304
     12 C         138.4912  137.4428  165.7362 C.3     1  UNL1        0.0310
     13 C         139.3510  137.5838  164.5152 C.ar    1  UNL1       -0.0218
     14 C         140.8282  137.3396  164.6059 C.ar    1  UNL1       -0.0034
     15 C         141.6881  137.4806  163.3850 C.ar    1  UNL1        0.0111
     16 C         141.0707  137.8658  162.0733 C.ar    1  UNL1        0.0577
     17 CL        141.9306  138.0068  160.8523 Cl      1  UNL1       -0.0822
     18 C         139.5935  138.1099  161.9826 C.ar    1  UNL1        0.0111
     19 C         138.7337  137.9689  163.2036 C.ar    1  UNL1       -0.0034
@<TRIPOS>BOND
     1     9    10    1
     2    10     8    1
     3     8     7    1
     4     7     4    1
     5     4     5    1
     6     5     6    1
     7     4     3    1
     8     3     1    1
     9     1     2    2
    10     2    11    1
    11    11    12    1
    12    12    13    1
    13    13    14   ar
    14    14    15   ar
    15    15    16   ar
    16    16    17    1
    17    16    18   ar
    18    18    19   ar
    19    19    13   ar
@<TRIPOS>MOLECULE
*****
 19 19 0 0 0
SMALL
GASTEIGER

@<TRIPOS>ATOM
      1 C         140.8787  142.0475  166.6740 C.2     1  UNL1       -0.0134
      2 C         140.8126  140.6033  167.0742 C.2     1  UNL1       -0.0290
      3 C         142.0205  142.5421  165.8363 C.3     1  UNL1        0.0985
      4 N         141.7776  142.9859  164.4242 N.3     1  UNL1       -0.2690
      5 C         142.7981  143.8269  163.7162 C.3     1  UNL1        0.0724
      6 C         142.7512  145.3215  163.8351 C.3     1  UNL1        0.0188
      7 C         140.5140  142.5887  163.7200 C.3     1  UNL1        0.0724
      8 C         139.4763  143.6236  163.4006 C.3     1  UNL1        0.0173
      9 C         138.6574  144.8832  165.5203 C.3     1  UNL1        0.0000
     10 C         138.3933  143.9306  164.3920 C.3     1  UNL1        0.0014
     11 C         139.6708  140.1088  167.9119 C.3     1  UNL1        0.0304
     12 C         138.5667  139.3136  167.2806 C.3     1  UNL1        0.0310
     13 C         138.5261  139.1374  165.7915 C.ar    1  UNL1       -0.0218
     14 C         138.0073  140.2420  164.9194 C.ar    1  UNL1       -0.0034
     15 C         137.9667  140.0658  163.4304 C.ar    1  UNL1        0.0111
     16 C         138.4450  138.7850  162.8134 C.ar    1  UNL1        0.0577
     17 CL        138.4044  138.6088  161.3243 Cl      1  UNL1       -0.0822
     18 C         138.9639  137.6804  163.6855 C.ar    1  UNL1        0.0111
     19 C         139.0044  137.8566  165.1745 C.ar    1  UNL1       -0.0034
@<TRIPOS>BOND
     1     9    10    1
     2    10     8    1
     3     8     7    1
     4     7     4    1
     5     4     5    1
     6     5     6    1
     7     4     3    1
     8     3     1    1
     9     1     2    2
    10     2    11    1
    11    11    12    1
    12    12    13    1
    13    13    14   ar
    14    14    15   ar
    15    15    16   ar
    16    16    17    1
    17    16    18   ar
    18    18    19   ar
    19    19    13   ar
