@<TRIPOS>MOLECULE
*****
 42 46 0 0 0
SMALL
GASTEIGER

@<TRIPOS>ATOM
      1 N         141.5200  138.4306  160.4263 N.3     1  UNL1       -0.2711
      2 C         142.6009  137.8952  159.5347 C.3     1  UNL1        0.0933
      3 C         141.6839  138.0115  158.3532 C.3     1  UNL1        0.1035
      4 C         140.6031  138.5470  159.2448 C.3     1  UNL1        0.0933
      5 C         141.1721  139.3198  164.8238 C.3     1  UNL1        0.0224
      6 C         141.5905  137.9542  164.3655 C.3     1  UNL1        0.0057
      7 C         141.7065  137.6578  162.8997 C.3     1  UNL1        0.0163
      8 C         141.4040  138.7270  161.8921 C.3     1  UNL1        0.0576
      9 C         140.9856  140.0927  162.3504 C.3     1  UNL1        0.0163
     10 C         140.8696  140.3890  163.8162 C.3     1  UNL1        0.0057
     11 C         140.8240  140.2087  169.2214 C.ar    1  UNL1       -0.0131
     12 C         139.6058  140.2578  168.3476 C.ar    1  UNL1       -0.0041
     13 C         139.7218  139.9615  166.8818 C.ar    1  UNL1       -0.0046
     14 C         141.0561  139.6161  166.2896 C.ar    1  UNL1       -0.0225
     15 C         142.2743  139.5670  167.1635 C.ar    1  UNL1       -0.0046
     16 C         142.1582  139.8633  168.6294 C.ar    1  UNL1       -0.0041
     17 C         140.7079  140.5050  170.6872 C.3     1  UNL1        0.1111
     18 N         142.2300  142.4603  171.4683 N.am    1  UNL1       -0.3285
     19 C         140.8632  141.9123  171.1825 C.2     1  UNL1        0.2238
     20 O         139.6517  142.7717  171.3921 O.2     1  UNL1       -0.2750
     21 H         142.3319  143.3839  171.7934 H       1  UNL1        0.1450
     22 H         143.0251  141.8962  171.3308 H       1  UNL1        0.1450
     23 N         141.7999  137.7151  156.8874 N.am    1  UNL1       -0.2999
     24 C         142.2815  138.7767  155.9434 C.2     1  UNL1        0.2701
     25 O         142.6470  140.1347  156.4653 O.2     1  UNL1       -0.2706
     26 H         141.5600  136.8238  156.5449 H       1  UNL1        0.1496
     27 C         142.3975  138.4803  154.4776 C.3     1  UNL1        0.2850
     28 N         143.1003  137.2377  154.0170 N.pl3   1  UNL1       -0.2091
     29 H         144.0396  137.2828  153.7254 H       1  UNL1        0.2928
     30 C         142.3721  135.9265  154.0006 C.2     1  UNL1        0.3493
     31 N         141.2064  135.5762  153.1239 N.2     1  UNL1        0.0798
     32 N         140.7956  134.1685  153.4396 N.2     1  UNL1       -0.0381
     33 C         141.7073  133.6488  154.5113 C.2     1  UNL1        0.1169
     34 C         141.7762  132.3266  155.2163 C.3     1  UNL1        0.0759
     35 C         142.8194  132.0909  156.2680 C.2     1  UNL1       -0.0158
     36 C         143.7938  133.1774  156.6147 C.2     1  UNL1        0.0678
     37 C         143.7249  134.4995  155.9097 C.2     1  UNL1        0.0123
     38 C         142.6817  134.7353  154.8580 C.2     1  UNL1        0.1019
     39 C         144.8370  132.9416  157.6664 C.3     1  UNL1        0.4183
     40 F         145.8802  132.7059  158.7181 F       1  UNL1       -0.1659
     41 F         145.5550  132.0020  156.7437 F       1  UNL1       -0.1659
     42 F         144.1190  133.8812  158.5892 F       1  UNL1       -0.1659
@<TRIPOS>BOND
     1    18    19   am
     2    19    20    2
     3    19    17    1
     4    17    11    1
     5    11    12   ar
     6    12    13   ar
     7    13    14   ar
     8     5    14    1
     9     5     6    1
    10     6     7    1
    11     7     8    1
    12     8     1    1
    13     1     2    1
    14     2     3    1
    15     3    23    1
    16    23    24   am
    17    24    25    2
    18    24    27    1
    19    27    28    1
    20    28    30    1
    21    30    31    2
    22    31    32    1
    23    32    33    2
    24    33    34    1
    25    34    35    1
    26    35    36    2
    27    36    39    1
    28    39    40    1
    29    39    41    1
    30    39    42    1
    31    36    37    1
    32    37    38    2
    33     3     4    1
    34     8     9    1
    35     9    10    1
    36    14    15   ar
    37    15    16   ar
    38    16    11   ar
    39    10     5    1
    40     4     1    1
    41    38    30    1
    42    38    33    1
    43    18    21    1
    44    18    22    1
    45    23    26    1
    46    28    29    1
@<TRIPOS>MOLECULE
*****
 42 46 0 0 0
SMALL
GASTEIGER

@<TRIPOS>ATOM
      1 N         140.2608  138.8295  159.3816 N.3     1  UNL1       -0.2711
      2 C         139.4908  139.2363  158.1603 C.3     1  UNL1        0.0933
      3 C         140.4790  138.5108  157.2957 C.3     1  UNL1        0.1035
      4 C         141.2489  138.1041  158.5171 C.3     1  UNL1        0.0933
      5 C         139.7981  139.5054  163.8065 C.3     1  UNL1        0.0224
      6 C         140.4414  140.5559  162.9504 C.3     1  UNL1        0.0057
      7 C         140.5956  140.3306  161.4756 C.3     1  UNL1        0.0163
      8 C         140.1066  139.0548  160.8566 C.3     1  UNL1        0.0576
      9 C         139.4633  138.0043  161.7125 C.3     1  UNL1        0.0163
     10 C         139.3091  138.2296  163.1875 C.3     1  UNL1        0.0057
     11 C         139.3358  140.1818  168.2312 C.ar    1  UNL1       -0.0131
     12 C         140.3825  140.9330  167.4631 C.ar    1  UNL1       -0.0041
     13 C         140.5366  140.7075  165.9881 C.ar    1  UNL1       -0.0046
     14 C         139.6440  139.7308  165.2814 C.ar    1  UNL1       -0.0225
     15 C         138.5973  138.9797  166.0496 C.ar    1  UNL1       -0.0046
     16 C         138.4432  139.2052  167.5245 C.ar    1  UNL1       -0.0041
     17 C         139.1817  140.4073  169.7062 C.3     1  UNL1        0.1111
     18 N         141.3140  139.0722  170.3549 N.am    1  UNL1       -0.3285
     19 C         140.3472  140.1871  170.6243 C.2     1  UNL1        0.2238
     20 O         140.5460  141.0816  171.8119 O.2     1  UNL1       -0.2750
     21 H         142.0790  138.9277  170.9575 H       1  UNL1        0.1450
     22 H         141.1835  138.4851  169.5755 H       1  UNL1        0.1450
     23 N         140.6332  138.2856  155.8208 N.am    1  UNL1       -0.2999
     24 C         139.6035  137.4930  155.0715 C.2     1  UNL1        0.2701
     25 O         138.4196  136.9257  155.7972 O.2     1  UNL1       -0.2706
     26 H         141.4103  138.6579  155.3445 H       1  UNL1        0.1496
     27 C         139.7577  137.2677  153.5966 C.3     1  UNL1        0.2850
     28 N         140.9401  136.5070  153.0737 N.pl3   1  UNL1       -0.2091
     29 H         141.7135  136.9919  152.7049 H       1  UNL1        0.2928
     30 C         140.9442  135.0075  153.1126 C.2     1  UNL1        0.3493
     31 N         140.3572  134.0970  152.0751 N.2     1  UNL1        0.0798
     32 N         140.5862  132.6820  152.5173 N.2     1  UNL1       -0.0381
     33 C         141.3146  132.7180  153.8281 C.2     1  UNL1        0.1169
     34 C         141.8050  131.6278  154.7341 C.3     1  UNL1        0.0759
     35 C         142.5167  131.9749  156.0080 C.2     1  UNL1       -0.0158
     36 C         142.7379  133.4121  156.3760 C.2     1  UNL1        0.0678
     37 C         142.2475  134.5023  155.4700 C.2     1  UNL1        0.0123
     38 C         141.5359  134.1553  154.1960 C.2     1  UNL1        0.1019
     39 C         143.4497  133.7591  157.6500 C.3     1  UNL1        0.4183
     40 F         144.1614  134.1061  158.9240 F       1  UNL1       -0.1659
     41 F         142.8475  135.1324  157.6124 F       1  UNL1       -0.1659
     42 F         144.0518  132.3858  157.6876 F       1  UNL1       -0.1659
@<TRIPOS>BOND
     1    18    19   am
     2    19    20    2
     3    19    17    1
     4    17    11    1
     5    11    12   ar
     6    12    13   ar
     7    13    14   ar
     8     5    14    1
     9     5     6    1
    10     6     7    1
    11     7     8    1
    12     8     1    1
    13     1     2    1
    14     2     3    1
    15     3    23    1
    16    23    24   am
    17    24    25    2
    18    24    27    1
    19    27    28    1
    20    28    30    1
    21    30    31    2
    22    31    32    1
    23    32    33    2
    24    33    34    1
    25    34    35    1
    26    35    36    2
    27    36    39    1
    28    39    40    1
    29    39    41    1
    30    39    42    1
    31    36    37    1
    32    37    38    2
    33     3     4    1
    34     8     9    1
    35     9    10    1
    36    14    15   ar
    37    15    16   ar
    38    16    11   ar
    39    10     5    1
    40     4     1    1
    41    38    30    1
    42    38    33    1
    43    18    21    1
    44    18    22    1
    45    23    26    1
    46    28    29    1
@<TRIPOS>MOLECULE
*****
 42 46 0 0 0
SMALL
GASTEIGER

@<TRIPOS>ATOM
      1 N         138.4320  141.1454  159.9895 N.3     1  UNL1       -0.2711
      2 C         137.7293  140.2436  159.0185 C.3     1  UNL1        0.0933
      3 C         138.0464  141.1966  157.9042 C.3     1  UNL1        0.1035
      4 C         138.7491  142.0982  158.8753 C.3     1  UNL1        0.0933
      5 C         139.2503  141.0370  164.4132 C.3     1  UNL1        0.0224
      6 C         137.8653  141.3234  163.9134 C.3     1  UNL1        0.0057
      7 C         137.5926  141.3596  162.4389 C.3     1  UNL1        0.0163
      8 C         138.7048  141.1093  161.4641 C.3     1  UNL1        0.0576
      9 C         140.0898  140.8228  161.9639 C.3     1  UNL1        0.0163
     10 C         140.3625  140.7867  163.4384 C.3     1  UNL1        0.0057
     11 C         140.0683  140.9289  168.8369 C.ar    1  UNL1       -0.0131
     12 C         140.5337  142.0952  168.0164 C.ar    1  UNL1       -0.0041
     13 C         140.2610  142.1312  166.5419 C.ar    1  UNL1       -0.0046
     14 C         139.5229  141.0009  165.8877 C.ar    1  UNL1       -0.0225
     15 C         139.0575  139.8347  166.7083 C.ar    1  UNL1       -0.0046
     16 C         139.3302  139.7987  168.1828 C.ar    1  UNL1       -0.0041
     17 C         140.3410  140.8929  170.3115 C.3     1  UNL1        0.1111
     18 N         139.4117  143.1869  171.1014 N.am    1  UNL1       -0.3285
     19 C         140.5170  142.1731  171.0731 C.2     1  UNL1        0.2238
     20 O         141.7980  142.4395  171.8064 O.2     1  UNL1       -0.2750
     21 H         139.5272  144.0272  171.6013 H       1  UNL1        0.1450
     22 H         138.5709  143.0120  170.6201 H       1  UNL1        0.1450
     23 N         137.7736  141.2327  156.4296 N.am    1  UNL1       -0.2999
     24 C         138.4997  140.2967  155.5095 C.2     1  UNL1        0.2701
     25 O         139.4985  139.3245  156.0639 O.2     1  UNL1       -0.2706
     26 H         137.1181  141.8708  156.0657 H       1  UNL1        0.1496
     27 C         138.2269  140.3328  154.0350 C.3     1  UNL1        0.2850
     28 N         136.9829  139.6988  153.4866 N.pl3   1  UNL1       -0.2091
     29 H         137.0096  138.7747  153.1480 H       1  UNL1        0.2928
     30 C         135.6984  140.4727  153.4541 C.2     1  UNL1        0.3493
     31 N         135.2959  141.4695  152.4080 N.2     1  UNL1        0.0798
     32 N         133.9396  141.9986  152.7694 N.2     1  UNL1       -0.0381
     33 C         133.5039  141.3288  154.0389 C.2     1  UNL1        0.1169
     34 C         132.2579  141.4557  154.8642 C.3     1  UNL1        0.0759
     35 C         132.0989  140.6396  156.1127 C.2     1  UNL1       -0.0158
     36 C         133.1859  139.6966  156.5358 C.2     1  UNL1        0.0678
     37 C         134.4319  139.5697  155.7105 C.2     1  UNL1        0.0123
     38 C         134.5910  140.3857  154.4621 C.2     1  UNL1        0.1019
     39 C         133.0268  138.8805  157.7843 C.3     1  UNL1        0.4183
     40 F         132.8677  138.0645  159.0328 F       1  UNL1       -0.1659
     41 F         131.8537  138.1735  157.1728 F       1  UNL1       -0.1659
     42 F         134.1998  139.5875  158.3959 F       1  UNL1       -0.1659
@<TRIPOS>BOND
     1    18    19   am
     2    19    20    2
     3    19    17    1
     4    17    11    1
     5    11    12   ar
     6    12    13   ar
     7    13    14   ar
     8     5    14    1
     9     5     6    1
    10     6     7    1
    11     7     8    1
    12     8     1    1
    13     1     2    1
    14     2     3    1
    15     3    23    1
    16    23    24   am
    17    24    25    2
    18    24    27    1
    19    27    28    1
    20    28    30    1
    21    30    31    2
    22    31    32    1
    23    32    33    2
    24    33    34    1
    25    34    35    1
    26    35    36    2
    27    36    39    1
    28    39    40    1
    29    39    41    1
    30    39    42    1
    31    36    37    1
    32    37    38    2
    33     3     4    1
    34     8     9    1
    35     9    10    1
    36    14    15   ar
    37    15    16   ar
    38    16    11   ar
    39    10     5    1
    40     4     1    1
    41    38    30    1
    42    38    33    1
    43    18    21    1
    44    18    22    1
    45    23    26    1
    46    28    29    1
@<TRIPOS>MOLECULE
*****
 42 46 0 0 0
SMALL
GASTEIGER

@<TRIPOS>ATOM
      1 N         142.1360  138.7037  160.3631 N.3     1  UNL1       -0.2711
      2 C         142.8578  137.6301  159.6039 C.3     1  UNL1        0.0933
      3 C         142.5149  138.3126  158.3128 C.3     1  UNL1        0.1035
      4 C         141.7933  139.3862  159.0721 C.3     1  UNL1        0.0933
      5 C         141.3322  139.5334  164.7123 C.3     1  UNL1        0.0224
      6 C         140.6727  140.3685  163.6550 C.3     1  UNL1        0.0057
      7 C         140.9407  140.0919  162.2054 C.3     1  UNL1        0.0163
      8 C         141.8681  138.9803  161.8129 C.3     1  UNL1        0.0576
      9 C         142.5276  138.1452  162.8701 C.3     1  UNL1        0.0163
     10 C         142.2597  138.4218  164.3198 C.3     1  UNL1        0.0057
     11 C         140.5285  140.3635  169.0614 C.ar    1  UNL1       -0.0131
     12 C         141.9233  140.4772  168.5215 C.ar    1  UNL1       -0.0041
     13 C         142.1912  140.2005  167.0718 C.ar    1  UNL1       -0.0046
     14 C         141.0642  139.8101  166.1620 C.ar    1  UNL1       -0.0225
     15 C         139.6694  139.6964  166.7019 C.ar    1  UNL1       -0.0046
     16 C         139.4015  139.9731  168.1517 C.ar    1  UNL1       -0.0041
     17 C         140.2606  140.6402  170.5111 C.3     1  UNL1        0.1111
     18 N         139.4930  143.0761  170.9878 N.am    1  UNL1       -0.3285
     19 C         140.5356  142.0014  171.0782 C.2     1  UNL1        0.2238
     20 O         141.8530  142.2879  171.7355 O.2     1  UNL1       -0.2750
     21 H         139.6735  143.9695  171.3599 H       1  UNL1        0.1450
     22 H         138.6283  142.8880  170.5563 H       1  UNL1        0.1450
     23 N         142.7829  138.0361  156.8631 N.am    1  UNL1       -0.2999
     24 C         141.7027  137.4577  155.9979 C.2     1  UNL1        0.2701
     25 O         140.3546  137.1558  156.5824 O.2     1  UNL1       -0.2706
     26 H         143.6676  138.2341  156.4795 H       1  UNL1        0.1496
     27 C         141.9706  137.1811  154.5482 C.3     1  UNL1        0.2850
     28 N         142.4115  135.8144  154.1143 N.pl3   1  UNL1       -0.2091
     29 H         142.3769  135.5651  153.1626 H       1  UNL1        0.2928
     30 C         142.9049  134.8277  155.1307 C.2     1  UNL1        0.3493
     31 N         143.8919  135.1081  156.2248 N.2     1  UNL1        0.0798
     32 N         144.0950  133.8410  157.0017 N.2     1  UNL1       -0.0381
     33 C         143.2334  132.7777  156.3876 C.2     1  UNL1        0.1169
     34 C         143.0236  131.3330  156.7320 C.3     1  UNL1        0.0759
     35 C         142.0783  130.4980  155.9201 C.2     1  UNL1       -0.0158
     36 C         141.3428  131.1079  154.7638 C.2     1  UNL1        0.0678
     37 C         141.5526  132.5526  154.4193 C.2     1  UNL1        0.0123
     38 C         142.4979  133.3875  155.2313 C.2     1  UNL1        0.1019
     39 C         140.3975  130.2729  153.9518 C.3     1  UNL1        0.4183
     40 F         139.4522  129.4379  153.1399 F       1  UNL1       -0.1659
     41 F         141.5120  129.9276  153.0092 F       1  UNL1       -0.1659
     42 F         139.2830  130.6181  154.8944 F       1  UNL1       -0.1659
@<TRIPOS>BOND
     1    18    19   am
     2    19    20    2
     3    19    17    1
     4    17    11    1
     5    11    12   ar
     6    12    13   ar
     7    13    14   ar
     8     5    14    1
     9     5     6    1
    10     6     7    1
    11     7     8    1
    12     8     1    1
    13     1     2    1
    14     2     3    1
    15     3    23    1
    16    23    24   am
    17    24    25    2
    18    24    27    1
    19    27    28    1
    20    28    30    1
    21    30    31    2
    22    31    32    1
    23    32    33    2
    24    33    34    1
    25    34    35    1
    26    35    36    2
    27    36    39    1
    28    39    40    1
    29    39    41    1
    30    39    42    1
    31    36    37    1
    32    37    38    2
    33     3     4    1
    34     8     9    1
    35     9    10    1
    36    14    15   ar
    37    15    16   ar
    38    16    11   ar
    39    10     5    1
    40     4     1    1
    41    38    30    1
    42    38    33    1
    43    18    21    1
    44    18    22    1
    45    23    26    1
    46    28    29    1
@<TRIPOS>MOLECULE
*****
 42 46 0 0 0
SMALL
GASTEIGER

@<TRIPOS>ATOM
      1 N         141.7011  140.5093  159.9355 N.3     1  UNL1       -0.2711
      2 C         142.7004  140.5376  158.8171 C.3     1  UNL1        0.0933
      3 C         141.6575  140.0180  157.8722 C.3     1  UNL1        0.1035
      4 C         140.6584  139.9898  158.9906 C.3     1  UNL1        0.0933
      5 C         141.7934  141.5512  164.3122 C.3     1  UNL1        0.0224
      6 C         140.5363  141.7538  163.5193 C.3     1  UNL1        0.0057
      7 C         140.5056  141.4065  162.0605 C.3     1  UNL1        0.0163
      8 C         141.7319  140.8566  161.3944 C.3     1  UNL1        0.0576
      9 C         142.9890  140.6540  162.1872 C.3     1  UNL1        0.0163
     10 C         143.0198  141.0013  163.6462 C.3     1  UNL1        0.0057
     11 C         141.8851  142.5934  168.6889 C.ar    1  UNL1       -0.0131
     12 C         140.5920  142.6513  167.9311 C.ar    1  UNL1       -0.0041
     13 C         140.5614  142.3039  166.4722 C.ar    1  UNL1       -0.0046
     14 C         141.8241  141.8986  165.7711 C.ar    1  UNL1       -0.0225
     15 C         143.1173  141.8407  166.5289 C.ar    1  UNL1       -0.0046
     16 C         143.1478  142.1881  167.9878 C.ar    1  UNL1       -0.0041
     17 C         141.9157  142.9407  170.1478 C.3     1  UNL1        0.1111
     18 N         142.4368  140.6729  171.3033 N.am    1  UNL1       -0.3285
     19 C         141.5821  141.8988  171.1740 C.2     1  UNL1        0.2238
     20 O         140.3940  142.0828  172.0709 O.2     1  UNL1       -0.2750
     21 H         142.2179  139.9890  171.9768 H       1  UNL1        0.1450
     22 H         143.2166  140.5521  170.7146 H       1  UNL1        0.1450
     23 N         141.6267  139.6707  156.4133 N.am    1  UNL1       -0.2999
     24 C         141.7634  138.2413  155.9797 C.2     1  UNL1        0.2701
     25 O         141.9309  137.1592  157.0049 O.2     1  UNL1       -0.2706
     26 H         141.5168  140.3809  155.7404 H       1  UNL1        0.1496
     27 C         141.7327  137.8940  154.5208 C.3     1  UNL1        0.2850
     28 N         142.7061  136.8962  153.9667 N.pl3   1  UNL1       -0.2091
     29 H         143.6271  137.1722  153.7549 H       1  UNL1        0.2928
     30 C         142.2763  135.4778  153.7352 C.2     1  UNL1        0.3493
     31 N         141.3109  135.0090  152.6873 N.2     1  UNL1        0.0798
     32 N         141.1744  133.5207  152.8155 N.2     1  UNL1       -0.0381
     33 C         142.0554  133.0698  153.9428 C.2     1  UNL1        0.1169
     34 C         142.3254  131.7141  154.5250 C.3     1  UNL1        0.0759
     35 C         143.2765  131.5680  155.6757 C.2     1  UNL1       -0.0158
     36 C         143.9575  132.7776  156.2441 C.2     1  UNL1        0.0678
     37 C         143.6874  134.1333  155.6618 C.2     1  UNL1        0.0123
     38 C         142.7364  134.2794  154.5112 C.2     1  UNL1        0.1019
     39 C         144.9086  132.6314  157.3948 C.3     1  UNL1        0.4183
     40 F         145.8596  132.4852  158.5455 F       1  UNL1       -0.1659
     41 F         144.1794  133.7132  158.1350 F       1  UNL1       -0.1659
     42 F         145.6378  131.5496  156.6547 F       1  UNL1       -0.1659
@<TRIPOS>BOND
     1    18    19   am
     2    19    20    2
     3    19    17    1
     4    17    11    1
     5    11    12   ar
     6    12    13   ar
     7    13    14   ar
     8     5    14    1
     9     5     6    1
    10     6     7    1
    11     7     8    1
    12     8     1    1
    13     1     2    1
    14     2     3    1
    15     3    23    1
    16    23    24   am
    17    24    25    2
    18    24    27    1
    19    27    28    1
    20    28    30    1
    21    30    31    2
    22    31    32    1
    23    32    33    2
    24    33    34    1
    25    34    35    1
    26    35    36    2
    27    36    39    1
    28    39    40    1
    29    39    41    1
    30    39    42    1
    31    36    37    1
    32    37    38    2
    33     3     4    1
    34     8     9    1
    35     9    10    1
    36    14    15   ar
    37    15    16   ar
    38    16    11   ar
    39    10     5    1
    40     4     1    1
    41    38    30    1
    42    38    33    1
    43    18    21    1
    44    18    22    1
    45    23    26    1
    46    28    29    1
@<TRIPOS>MOLECULE
*****
 42 46 0 0 0
SMALL
GASTEIGER

@<TRIPOS>ATOM
      1 N         142.0898  140.8979  158.6724 N.3     1  UNL1       -0.2711
      2 C         142.1752  141.4085  160.0803 C.3     1  UNL1        0.0933
      3 C         141.8431  142.7901  159.5993 C.3     1  UNL1        0.1035
      4 C         141.7577  142.2794  158.1915 C.3     1  UNL1        0.0933
      5 C         142.6131  136.8843  156.7059 C.3     1  UNL1        0.0224
      6 C         142.7487  137.0138  158.1942 C.3     1  UNL1        0.0057
      7 C         142.5743  138.3516  158.8497 C.3     1  UNL1        0.0163
      8 C         142.2642  139.5601  158.0169 C.3     1  UNL1        0.0576
      9 C         142.1287  139.4307  156.5287 C.3     1  UNL1        0.0163
     10 C         142.3031  138.0928  155.8732 C.3     1  UNL1        0.0057
     11 C         143.1364  132.8707  154.7396 C.ar    1  UNL1       -0.0131
     12 C         142.4451  133.9810  154.0054 C.ar    1  UNL1       -0.0041
     13 C         142.2707  135.3189  154.6609 C.ar    1  UNL1       -0.0046
     14 C         142.7876  135.5464  156.0506 C.ar    1  UNL1       -0.0225
     15 C         143.4788  134.4360  156.7847 C.ar    1  UNL1       -0.0046
     16 C         143.6532  133.0981  156.1292 C.ar    1  UNL1       -0.0041
     17 C         143.3108  131.5328  154.0841 C.3     1  UNL1        0.1111
     18 N         145.1381  129.8404  154.8233 N.am    1  UNL1       -0.3285
     19 C         143.7280  130.3460  154.9011 C.2     1  UNL1        0.2238
     20 O         142.7353  129.6649  155.7958 O.2     1  UNL1       -0.2750
     21 H         145.4120  129.0615  155.3595 H       1  UNL1        0.1450
     22 H         145.7897  130.2874  154.2361 H       1  UNL1        0.1450
     23 N         141.6687  144.1279  160.2548 N.am    1  UNL1       -0.2999
     24 C         140.3072  144.5730  160.7002 C.2     1  UNL1        0.2701
     25 O         139.1203  143.6802  160.4901 O.2     1  UNL1       -0.2706
     26 H         142.4477  144.7139  160.3927 H       1  UNL1        0.1496
     27 C         140.1328  145.9109  161.3557 C.3     1  UNL1        0.2850
     28 N         140.5849  146.1173  162.7711 N.pl3   1  UNL1       -0.2091
     29 H         141.1097  146.9157  163.0087 H       1  UNL1        0.2928
     30 C         140.2375  145.1073  163.8242 C.2     1  UNL1        0.3493
     31 N         138.9086  144.9649  164.5051 N.2     1  UNL1        0.0798
     32 N         139.0079  143.8319  165.4831 N.2     1  UNL1       -0.0381
     33 C         140.3982  143.2740  165.4067 C.2     1  UNL1        0.1169
     34 C         141.0703  142.1502  166.1381 C.3     1  UNL1        0.0759
     35 C         142.5024  141.8145  165.8444 C.2     1  UNL1       -0.0158
     36 C         143.2624  142.6027  164.8191 C.2     1  UNL1        0.0678
     37 C         142.5903  143.7266  164.0877 C.2     1  UNL1        0.0123
     38 C         141.1582  144.0623  164.3814 C.2     1  UNL1        0.1019
     39 C         144.6946  142.2670  164.5254 C.3     1  UNL1        0.4183
     40 F         146.1267  141.9313  164.2317 F       1  UNL1       -0.1659
     41 F         145.1331  143.5083  165.2444 F       1  UNL1       -0.1659
     42 F         144.2561  141.0258  163.8064 F       1  UNL1       -0.1659
@<TRIPOS>BOND
     1    18    19   am
     2    19    20    2
     3    19    17    1
     4    17    11    1
     5    11    12   ar
     6    12    13   ar
     7    13    14   ar
     8     5    14    1
     9     5     6    1
    10     6     7    1
    11     7     8    1
    12     8     1    1
    13     1     2    1
    14     2     3    1
    15     3    23    1
    16    23    24   am
    17    24    25    2
    18    24    27    1
    19    27    28    1
    20    28    30    1
    21    30    31    2
    22    31    32    1
    23    32    33    2
    24    33    34    1
    25    34    35    1
    26    35    36    2
    27    36    39    1
    28    39    40    1
    29    39    41    1
    30    39    42    1
    31    36    37    1
    32    37    38    2
    33     3     4    1
    34     8     9    1
    35     9    10    1
    36    14    15   ar
    37    15    16   ar
    38    16    11   ar
    39    10     5    1
    40     4     1    1
    41    38    30    1
    42    38    33    1
    43    18    21    1
    44    18    22    1
    45    23    26    1
    46    28    29    1
@<TRIPOS>MOLECULE
*****
 42 46 0 0 0
SMALL
GASTEIGER

@<TRIPOS>ATOM
      1 N         143.0087  140.8168  159.0761 N.3     1  UNL1       -0.2711
      2 C         142.0633  141.4800  160.0334 C.3     1  UNL1        0.0933
      3 C         143.0049  142.6409  160.1590 C.3     1  UNL1        0.1035
      4 C         143.9502  141.9777  159.2017 C.3     1  UNL1        0.0933
      5 C         143.0170  136.9473  156.7790 C.3     1  UNL1        0.0224
      6 C         142.6525  136.9550  158.2340 C.3     1  UNL1        0.0057
      7 C         142.6497  138.2448  158.9997 C.3     1  UNL1        0.0163
      8 C         143.0115  139.5270  158.3104 C.3     1  UNL1        0.0576
      9 C         143.3760  139.5193  156.8554 C.3     1  UNL1        0.0163
     10 C         143.3787  138.2295  156.0897 C.3     1  UNL1        0.0057
     11 C         143.0253  133.0776  154.4823 C.ar    1  UNL1       -0.0131
     12 C         143.7868  133.1871  155.7699 C.ar    1  UNL1       -0.0041
     13 C         143.7840  134.4770  156.5355 C.ar    1  UNL1       -0.0046
     14 C         143.0197  135.6575  156.0134 C.ar    1  UNL1       -0.0225
     15 C         142.2582  135.5479  154.7257 C.ar    1  UNL1       -0.0046
     16 C         142.2610  134.2579  153.9602 C.ar    1  UNL1       -0.0041
     17 C         143.0281  131.7876  153.7168 C.3     1  UNL1        0.1111
     18 N         144.8268  129.9911  154.2523 N.am    1  UNL1       -0.3285
     19 C         143.4278  130.5122  154.3977 C.2     1  UNL1        0.2238
     20 O         142.4285  129.7580  155.2239 O.2     1  UNL1       -0.2750
     21 H         145.0892  129.1540  154.6992 H       1  UNL1        0.1450
     22 H         145.4827  130.4861  153.7101 H       1  UNL1        0.1450
     23 N         143.0022  143.9308  160.9247 N.am    1  UNL1       -0.2999
     24 C         143.2049  143.9210  162.4109 C.2     1  UNL1        0.2701
     25 O         143.4103  142.6215  163.1314 O.2     1  UNL1       -0.2706
     26 H         142.8673  144.7837  160.4519 H       1  UNL1        0.1496
     27 C         143.2021  145.2109  163.1766 C.3     1  UNL1        0.2850
     28 N         141.9172  145.7513  163.7310 N.pl3   1  UNL1       -0.2091
     29 H         141.9351  146.4675  164.4062 H       1  UNL1        0.2928
     30 C         140.6052  145.2004  163.2565 C.2     1  UNL1        0.3493
     31 N         139.7863  145.7312  162.1174 N.2     1  UNL1        0.0798
     32 N         138.5567  144.8808  161.9948 N.2     1  UNL1       -0.0381
     33 C         138.6158  143.8244  163.0580 C.2     1  UNL1        0.1169
     34 C         137.6803  142.7081  163.4168 C.3     1  UNL1        0.0759
     35 C         138.0109  141.7894  164.5555 C.2     1  UNL1       -0.0158
     36 C         139.2770  141.9869  165.3353 C.2     1  UNL1        0.0678
     37 C         140.2124  143.1031  164.9765 C.2     1  UNL1        0.0123
     38 C         139.8819  144.0219  163.8378 C.2     1  UNL1        0.1019
     39 C         139.6075  141.0681  166.4740 C.3     1  UNL1        0.4183
     40 F         139.9381  140.1492  167.6126 F       1  UNL1       -0.1659
     41 F         140.1414  142.2306  167.2572 F       1  UNL1       -0.1659
     42 F         139.0737  139.9055  165.6908 F       1  UNL1       -0.1659
@<TRIPOS>BOND
     1    18    19   am
     2    19    20    2
     3    19    17    1
     4    17    11    1
     5    11    12   ar
     6    12    13   ar
     7    13    14   ar
     8     5    14    1
     9     5     6    1
    10     6     7    1
    11     7     8    1
    12     8     1    1
    13     1     2    1
    14     2     3    1
    15     3    23    1
    16    23    24   am
    17    24    25    2
    18    24    27    1
    19    27    28    1
    20    28    30    1
    21    30    31    2
    22    31    32    1
    23    32    33    2
    24    33    34    1
    25    34    35    1
    26    35    36    2
    27    36    39    1
    28    39    40    1
    29    39    41    1
    30    39    42    1
    31    36    37    1
    32    37    38    2
    33     3     4    1
    34     8     9    1
    35     9    10    1
    36    14    15   ar
    37    15    16   ar
    38    16    11   ar
    39    10     5    1
    40     4     1    1
    41    38    30    1
    42    38    33    1
    43    18    21    1
    44    18    22    1
    45    23    26    1
    46    28    29    1
@<TRIPOS>MOLECULE
*****
 42 46 0 0 0
SMALL
GASTEIGER

@<TRIPOS>ATOM
      1 N         141.5043  139.0534  160.0349 N.3     1  UNL1       -0.2711
      2 C         140.4267  138.8567  159.0101 C.3     1  UNL1        0.0933
      3 C         141.4326  138.2687  158.0653 C.3     1  UNL1        0.1035
      4 C         142.5101  138.4654  159.0900 C.3     1  UNL1        0.0933
      5 C         141.6567  140.7179  164.2129 C.3     1  UNL1        0.0224
      6 C         142.9216  140.5586  163.4224 C.3     1  UNL1        0.0057
      7 C         142.8707  140.0037  162.0298 C.3     1  UNL1        0.0163
      8 C         141.5551  139.6082  161.4276 C.3     1  UNL1        0.0576
      9 C         140.2903  139.7676  162.2180 C.3     1  UNL1        0.0163
     10 C         140.3411  140.3224  163.6107 C.3     1  UNL1        0.0057
     11 C         141.8098  142.3826  168.3909 C.ar    1  UNL1       -0.0131
     12 C         143.0528  142.3461  167.5521 C.ar    1  UNL1       -0.0041
     13 C         143.0017  141.7912  166.1595 C.ar    1  UNL1       -0.0046
     14 C         141.7077  141.2728  165.6055 C.ar    1  UNL1       -0.0225
     15 C         140.4647  141.3093  166.4444 C.ar    1  UNL1       -0.0046
     16 C         140.5157  141.8642  167.8370 C.ar    1  UNL1       -0.0041
     17 C         141.8608  142.9375  169.7835 C.3     1  UNL1        0.1111
     18 N         140.0278  144.7468  170.1247 N.am    1  UNL1       -0.3285
     19 C         140.6009  143.4000  170.4532 C.2     1  UNL1        0.2238
     20 O         139.9140  142.5159  171.4515 O.2     1  UNL1       -0.2750
     21 H         139.2009  145.0504  170.5642 H       1  UNL1        0.1450
     22 H         140.4787  145.3270  169.4695 H       1  UNL1        0.1450
     23 N         141.3818  137.7138  156.6726 N.am    1  UNL1       -0.2999
     24 C         141.9084  138.5218  155.5238 C.2     1  UNL1        0.2701
     25 O         142.4859  139.8845  155.7676 O.2     1  UNL1       -0.2706
     26 H         141.0027  136.8194  156.5126 H       1  UNL1        0.1496
     27 C         141.8576  137.9669  154.1311 C.3     1  UNL1        0.2850
     28 N         142.7498  136.8241  153.7460 N.pl3   1  UNL1       -0.2091
     29 H         143.6995  136.9874  153.5443 H       1  UNL1        0.2928
     30 C         142.1950  135.4327  153.6684 C.2     1  UNL1        0.3493
     31 N         141.1303  134.9595  152.7237 N.2     1  UNL1        0.0798
     32 N         140.8848  133.5045  152.9933 N.2     1  UNL1       -0.0381
     33 C         141.7978  133.0784  154.1046 C.2     1  UNL1        0.1169
     34 C         141.9965  131.7593  154.7904 C.3     1  UNL1        0.0759
     35 C         143.0049  131.6319  155.8935 C.2     1  UNL1       -0.0158
     36 C         143.8146  132.8237  156.3108 C.2     1  UNL1        0.0678
     37 C         143.6160  134.1428  155.6249 C.2     1  UNL1        0.0123
     38 C         142.6076  134.2701  154.5218 C.2     1  UNL1        0.1019
     39 C         144.8231  132.6962  157.4139 C.3     1  UNL1        0.4183
     40 F         145.8315  132.5688  158.5170 F       1  UNL1       -0.1659
     41 F         143.9992  133.6093  158.2726 F       1  UNL1       -0.1659
     42 F         145.6470  131.7832  156.5552 F       1  UNL1       -0.1659
@<TRIPOS>BOND
     1    18    19   am
     2    19    20    2
     3    19    17    1
     4    17    11    1
     5    11    12   ar
     6    12    13   ar
     7    13    14   ar
     8     5    14    1
     9     5     6    1
    10     6     7    1
    11     7     8    1
    12     8     1    1
    13     1     2    1
    14     2     3    1
    15     3    23    1
    16    23    24   am
    17    24    25    2
    18    24    27    1
    19    27    28    1
    20    28    30    1
    21    30    31    2
    22    31    32    1
    23    32    33    2
    24    33    34    1
    25    34    35    1
    26    35    36    2
    27    36    39    1
    28    39    40    1
    29    39    41    1
    30    39    42    1
    31    36    37    1
    32    37    38    2
    33     3     4    1
    34     8     9    1
    35     9    10    1
    36    14    15   ar
    37    15    16   ar
    38    16    11   ar
    39    10     5    1
    40     4     1    1
    41    38    30    1
    42    38    33    1
    43    18    21    1
    44    18    22    1
    45    23    26    1
    46    28    29    1
@<TRIPOS>MOLECULE
*****
 42 46 0 0 0
SMALL
GASTEIGER

@<TRIPOS>ATOM
      1 N         139.3467  142.6918  158.0048 N.3     1  UNL1       -0.2711
      2 C         138.4790  141.4693  157.9548 C.3     1  UNL1        0.0933
      3 C         139.3284  140.8234  159.0091 C.3     1  UNL1        0.1035
      4 C         140.1960  142.0459  159.0591 C.3     1  UNL1        0.0933
      5 C         139.3859  146.6554  155.8744 C.3     1  UNL1        0.0224
      6 C         138.6124  145.5043  155.3029 C.3     1  UNL1        0.0057
      7 C         138.5993  144.1832  156.0130 C.3     1  UNL1        0.0163
      8 C         139.3598  144.0130  157.2947 C.3     1  UNL1        0.0576
      9 C         140.1332  145.1641  157.8662 C.3     1  UNL1        0.0163
     10 C         140.1463  146.4853  157.1561 C.3     1  UNL1        0.0057
     11 C         139.4247  150.6189  153.7440 C.ar    1  UNL1       -0.0131
     12 C         138.7516  150.4913  155.0783 C.ar    1  UNL1       -0.0041
     13 C         138.7387  149.1701  155.7885 C.ar    1  UNL1       -0.0046
     14 C         139.3988  147.9765  155.1642 C.ar    1  UNL1       -0.0225
     15 C         140.0719  148.1042  153.8298 C.ar    1  UNL1       -0.0046
     16 C         140.0848  149.4254  153.1197 C.ar    1  UNL1       -0.0041
     17 C         139.4376  151.9401  153.0338 C.3     1  UNL1        0.1111
     18 N         137.3095  153.4294  152.9751 N.am    1  UNL1       -0.3285
     19 C         138.6418  153.0905  153.5754 C.2     1  UNL1        0.2238
     20 O         139.1782  153.9020  154.7172 O.2     1  UNL1       -0.2750
     21 H         136.7872  154.1844  153.3306 H       1  UNL1        0.1450
     22 H         136.9575  152.8968  152.2257 H       1  UNL1        0.1450
     23 N         139.3153  139.5022  159.7193 N.am    1  UNL1       -0.2999
     24 C         138.4142  139.2945  160.9003 C.2     1  UNL1        0.2701
     25 O         137.5261  140.4078  161.3711 O.2     1  UNL1       -0.2706
     26 H         139.8982  138.7714  159.4102 H       1  UNL1        0.1496
     27 C         138.4011  137.9733  161.6104 C.3     1  UNL1        0.2850
     28 N         138.5829  137.9198  163.0985 N.pl3   1  UNL1       -0.2091
     29 H         137.8852  137.5187  163.6655 H       1  UNL1        0.2928
     30 C         139.8278  138.4773  163.7225 C.2     1  UNL1        0.3493
     31 N         141.1215  137.7435  163.9167 N.2     1  UNL1        0.0798
     32 N         142.0907  138.6793  164.5761 N.2     1  UNL1       -0.0381
     33 C         141.3961  139.9915  164.7894 C.2     1  UNL1        0.1169
     34 C         141.8563  141.2839  165.3959 C.3     1  UNL1        0.0759
     35 C         140.9180  142.4515  165.4748 C.2     1  UNL1       -0.0158
     36 C         139.5194  142.3267  164.9472 C.2     1  UNL1        0.0678
     37 C         139.0591  141.0343  164.3407 C.2     1  UNL1        0.0123
     38 C         139.9975  139.8667  164.2618 C.2     1  UNL1        0.1019
     39 C         138.5811  143.4943  165.0261 C.3     1  UNL1        0.4183
     40 F         137.6428  144.6620  165.1050 F       1  UNL1       -0.1659
     41 F         137.4331  142.5957  164.6735 F       1  UNL1       -0.1659
     42 F         139.7291  144.3930  165.3788 F       1  UNL1       -0.1659
@<TRIPOS>BOND
     1    18    19   am
     2    19    20    2
     3    19    17    1
     4    17    11    1
     5    11    12   ar
     6    12    13   ar
     7    13    14   ar
     8     5    14    1
     9     5     6    1
    10     6     7    1
    11     7     8    1
    12     8     1    1
    13     1     2    1
    14     2     3    1
    15     3    23    1
    16    23    24   am
    17    24    25    2
    18    24    27    1
    19    27    28    1
    20    28    30    1
    21    30    31    2
    22    31    32    1
    23    32    33    2
    24    33    34    1
    25    34    35    1
    26    35    36    2
    27    36    39    1
    28    39    40    1
    29    39    41    1
    30    39    42    1
    31    36    37    1
    32    37    38    2
    33     3     4    1
    34     8     9    1
    35     9    10    1
    36    14    15   ar
    37    15    16   ar
    38    16    11   ar
    39    10     5    1
    40     4     1    1
    41    38    30    1
    42    38    33    1
    43    18    21    1
    44    18    22    1
    45    23    26    1
    46    28    29    1
