@<TRIPOS>MOLECULE
*****
 31 32 0 0 0
SMALL
GASTEIGER

@<TRIPOS>ATOM
      1 N         140.9961  138.1712  162.4056 N.3     1  UNL1       -0.2670
      2 C         141.9511  137.7891  161.3138 C.3     1  UNL1        0.1047
      3 C         143.4149  138.0809  161.4618 C.3     1  UNL1        0.1595
      4 O         143.9238  138.7548  162.7014 O.3     1  UNL1       -0.3516
      5 C         142.9688  139.1369  163.7932 C.3     1  UNL1        0.1507
      6 C         141.5049  138.8451  163.6452 C.3     1  UNL1        0.1039
      7 C         139.5322  137.8793  162.2576 C.3     1  UNL1        0.0938
      8 C         138.5745  138.9892  161.9398 C.3     1  UNL1        0.1082
      9 N         138.0585  142.0483  164.4149 N.am    1  UNL1       -0.2921
     10 C         138.6110  141.1954  163.3115 C.2     1  UNL1        0.3007
     11 O         139.7522  141.6957  162.4766 O.2     1  UNL1       -0.2528
     12 N         138.0221  139.8421  163.0432 N.am    1  UNL1       -0.2875
     13 H         137.3095  141.7199  164.9629 H       1  UNL1        0.1508
     14 H         137.2730  139.5137  163.5912 H       1  UNL1        0.1510
     15 C         137.6880  144.0128  163.7056 C.3     1  UNL1        0.0197
     16 C         138.6473  143.4015  164.6833 C.3     1  UNL1        0.0583
     17 C         139.6067  142.7902  165.6609 C.3     1  UNL1        0.0197
     18 C         139.2362  144.7548  164.9517 C.3     1  UNL1        0.0197
     19 C         143.4777  139.8109  165.0329 C.3     1  UNL1        0.1207
     20 N         142.5187  140.4918  165.9638 N.am    1  UNL1       -0.2985
     21 C         142.3793  140.0134  167.3787 C.2     1  UNL1        0.2460
     22 O         143.1990  138.8541  167.8626 O.2     1  UNL1       -0.2701
     23 H         141.9808  141.2527  165.6462 H       1  UNL1        0.1498
     24 C         141.4204  140.6944  168.3096 C.ar    1  UNL1        0.0550
     25 C         140.2148  139.9584  168.8146 C.ar    1  UNL1        0.0160
     26 C         139.2559  140.6393  169.7455 C.ar    1  UNL1        0.0587
     27 CL        138.0503  139.9033  170.2505 Cl      1  UNL1       -0.0822
     28 C         139.5024  142.0564  170.1715 C.ar    1  UNL1        0.0228
     29 C         140.7079  142.7923  169.6665 C.ar    1  UNL1        0.0587
     30 CL        140.9545  144.2093  170.0924 Cl      1  UNL1       -0.0822
     31 C         141.6669  142.1113  168.7355 C.ar    1  UNL1        0.0160
@<TRIPOS>BOND
     1    15    16    1
     2    16    17    1
     3    16    18    1
     4    16     9    1
     5     9    10   am
     6    10    11    2
     7    10    12   am
     8    12     8    1
     9     8     7    1
    10     7     1    1
    11     1     2    1
    12     2     3    1
    13     3     4    1
    14     4     5    1
    15     5    19    1
    16    19    20    1
    17    20    21   am
    18    21    22    2
    19    21    24    1
    20    24    25   ar
    21    25    26   ar
    22    26    27    1
    23    26    28   ar
    24    28    29   ar
    25    29    30    1
    26    29    31   ar
    27     5     6    1
    28     6     1    1
    29    31    24   ar
    30     9    13    1
    31    12    14    1
    32    20    23    1
@<TRIPOS>MOLECULE
*****
 31 32 0 0 0
SMALL
GASTEIGER

@<TRIPOS>ATOM
      1 N         139.0915  142.8234  159.7812 N.3     1  UNL1       -0.2670
      2 C         138.8760  141.6806  158.8339 C.3     1  UNL1        0.1047
      3 C         138.1599  140.4469  159.2977 C.3     1  UNL1        0.1595
      4 O         137.6593  140.3559  160.7087 O.3     1  UNL1       -0.3516
      5 C         137.8748  141.4988  161.6560 C.3     1  UNL1        0.1507
      6 C         138.5909  142.7325  161.1923 C.3     1  UNL1        0.1039
      7 C         139.8076  144.0572  159.3175 C.3     1  UNL1        0.0938
      8 C         140.2410  145.0918  160.3133 C.3     1  UNL1        0.1082
      9 N         143.6425  144.6615  162.3120 N.am    1  UNL1       -0.2921
     10 C         142.1955  144.5434  161.9348 C.2     1  UNL1        0.3007
     11 O         141.2561  143.7588  162.8019 O.2     1  UNL1       -0.2528
     12 N         141.6880  145.2099  160.6905 N.am    1  UNL1       -0.2875
     13 H         144.2591  145.1765  161.7429 H       1  UNL1        0.1508
     14 H         142.3046  145.7248  160.1214 H       1  UNL1        0.1510
     15 C         144.5857  142.8113  162.7446 C.3     1  UNL1        0.0197
     16 C         144.1500  143.9951  163.5563 C.3     1  UNL1        0.0583
     17 C         143.7144  145.1788  164.3680 C.3     1  UNL1        0.0197
     18 C         144.6576  143.3286  164.8007 C.3     1  UNL1        0.0197
     19 C         137.3742  141.4079  163.0672 C.3     1  UNL1        0.1207
     20 N         138.3480  141.2978  164.2027 N.am    1  UNL1       -0.2985
     21 C         138.9198  139.9615  164.5736 C.2     1  UNL1        0.2460
     22 O         138.5178  138.7354  163.8088 O.2     1  UNL1       -0.2701
     23 H         138.6119  142.1026  164.7047 H       1  UNL1        0.1498
     24 C         139.8936  139.8515  165.7092 C.ar    1  UNL1        0.0550
     25 C         141.2474  139.2474  165.4805 C.ar    1  UNL1        0.0160
     26 C         142.2212  139.1374  166.6160 C.ar    1  UNL1        0.0587
     27 CL        143.5750  138.5333  166.3873 Cl      1  UNL1       -0.0822
     28 C         141.8411  139.6314  167.9805 C.ar    1  UNL1        0.0228
     29 C         140.4873  140.2354  168.2092 C.ar    1  UNL1        0.0587
     30 CL        140.1073  140.7294  169.5736 Cl      1  UNL1       -0.0822
     31 C         139.5135  140.3454  167.0736 C.ar    1  UNL1        0.0160
@<TRIPOS>BOND
     1    15    16    1
     2    16    17    1
     3    16    18    1
     4    16     9    1
     5     9    10   am
     6    10    11    2
     7    10    12   am
     8    12     8    1
     9     8     7    1
    10     7     1    1
    11     1     2    1
    12     2     3    1
    13     3     4    1
    14     4     5    1
    15     5    19    1
    16    19    20    1
    17    20    21   am
    18    21    22    2
    19    21    24    1
    20    24    25   ar
    21    25    26   ar
    22    26    27    1
    23    26    28   ar
    24    28    29   ar
    25    29    30    1
    26    29    31   ar
    27     5     6    1
    28     6     1    1
    29    31    24   ar
    30     9    13    1
    31    12    14    1
    32    20    23    1
@<TRIPOS>MOLECULE
*****
 31 32 0 0 0
SMALL
GASTEIGER

@<TRIPOS>ATOM
      1 N         144.1820  141.7918  161.8130 N.3     1  UNL1       -0.2670
      2 C         144.1891  140.8653  160.6334 C.3     1  UNL1        0.1047
      3 C         144.0466  139.3865  160.8403 C.3     1  UNL1        0.1595
      4 O         143.8969  138.8342  162.2268 O.3     1  UNL1       -0.3516
      5 C         143.8898  139.7607  163.4064 C.3     1  UNL1        0.1507
      6 C         144.0323  141.2395  163.1995 C.3     1  UNL1        0.1039
      7 C         144.3245  143.2706  161.6061 C.3     1  UNL1        0.0938
      8 C         143.8545  144.2246  162.6639 C.3     1  UNL1        0.1082
      9 N         139.9579  144.8468  163.0882 N.am    1  UNL1       -0.2921
     10 C         141.3122  144.2115  163.1994 C.2     1  UNL1        0.3007
     11 O         141.4785  142.9278  163.9573 O.2     1  UNL1       -0.2528
     12 N         142.5002  144.8599  162.5526 N.am    1  UNL1       -0.2875
     13 H         139.8488  145.6893  162.5907 H       1  UNL1        0.1508
     14 H         142.3911  145.7025  162.0552 H       1  UNL1        0.1510
     15 C         139.0747  144.9175  165.0155 C.3     1  UNL1        0.0197
     16 C         138.7699  144.1984  163.7349 C.3     1  UNL1        0.0583
     17 C         138.4652  143.4794  162.4543 C.3     1  UNL1        0.0197
     18 C         137.5819  143.5500  164.3816 C.3     1  UNL1        0.0197
     19 C         143.7401  139.2083  164.7931 C.3     1  UNL1        0.1207
     20 N         143.0154  139.9995  165.8413 N.am    1  UNL1       -0.2985
     21 C         142.9417  139.4881  167.2496 C.2     1  UNL1        0.2460
     22 O         143.5927  138.1855  167.6095 O.2     1  UNL1       -0.2701
     23 H         142.5881  140.8544  165.6051 H       1  UNL1        0.1498
     24 C         142.2170  140.2792  168.2978 C.ar    1  UNL1        0.0550
     25 C         142.9064  141.4190  168.9875 C.ar    1  UNL1        0.0160
     26 C         142.1817  142.2101  170.0357 C.ar    1  UNL1        0.0587
     27 CL        142.8712  143.3498  170.7254 Cl      1  UNL1       -0.0822
     28 C         140.7675  141.8615  170.3943 C.ar    1  UNL1        0.0228
     29 C         140.0780  140.7218  169.7046 C.ar    1  UNL1        0.0587
     30 CL        138.6639  140.3732  170.0632 Cl      1  UNL1       -0.0822
     31 C         140.8028  139.9307  168.6564 C.ar    1  UNL1        0.0160
@<TRIPOS>BOND
     1    15    16    1
     2    16    17    1
     3    16    18    1
     4    16     9    1
     5     9    10   am
     6    10    11    2
     7    10    12   am
     8    12     8    1
     9     8     7    1
    10     7     1    1
    11     1     2    1
    12     2     3    1
    13     3     4    1
    14     4     5    1
    15     5    19    1
    16    19    20    1
    17    20    21   am
    18    21    22    2
    19    21    24    1
    20    24    25   ar
    21    25    26   ar
    22    26    27    1
    23    26    28   ar
    24    28    29   ar
    25    29    30    1
    26    29    31   ar
    27     5     6    1
    28     6     1    1
    29    31    24   ar
    30     9    13    1
    31    12    14    1
    32    20    23    1
@<TRIPOS>MOLECULE
*****
 31 32 0 0 0
SMALL
GASTEIGER

@<TRIPOS>ATOM
      1 N         140.4901  138.3024  161.9402 N.3     1  UNL1       -0.2670
      2 C         141.1154  138.4415  160.5839 C.3     1  UNL1        0.1047
      3 C         142.5754  138.7626  160.4605 C.3     1  UNL1        0.1595
      4 O         143.4101  138.9446  161.6934 O.3     1  UNL1       -0.3516
      5 C         142.7848  138.8056  163.0497 C.3     1  UNL1        0.1507
      6 C         141.3247  138.4845  163.1731 C.3     1  UNL1        0.1039
      7 C         139.0300  137.9814  162.0636 C.3     1  UNL1        0.0938
      8 C         138.0022  138.9946  161.6552 C.3     1  UNL1        0.1082
      9 N         137.6128  142.1329  164.0531 N.am    1  UNL1       -0.2921
     10 C         138.1808  141.1885  163.0354 C.2     1  UNL1        0.3007
     11 O         139.4951  141.4937  162.3802 O.2     1  UNL1       -0.2528
     12 N         137.4342  139.9390  162.6729 N.am    1  UNL1       -0.2875
     13 H         136.7502  141.9326  164.4830 H       1  UNL1        0.1508
     14 H         136.5716  139.7387  163.1029 H       1  UNL1        0.1510
     15 C         139.1219  142.6236  165.4608 C.3     1  UNL1        0.0197
     16 C         138.3593  143.3824  164.4156 C.3     1  UNL1        0.0583
     17 C         137.5967  144.1412  163.3704 C.3     1  UNL1        0.0197
     18 C         139.1057  144.6320  164.7781 C.3     1  UNL1        0.0197
     19 C         143.6195  138.9876  164.2827 C.3     1  UNL1        0.1207
     20 N         142.9649  139.3343  165.5870 N.am    1  UNL1       -0.2985
     21 C         142.9955  140.7475  166.0893 C.2     1  UNL1        0.2460
     22 O         143.6806  141.8139  165.2871 O.2     1  UNL1       -0.2701
     23 H         142.5153  138.6344  166.1135 H       1  UNL1        0.1498
     24 C         142.3410  141.0942  167.3936 C.ar    1  UNL1        0.0550
     25 C         143.0228  142.0268  168.3504 C.ar    1  UNL1        0.0160
     26 C         142.3683  142.3735  169.6547 C.ar    1  UNL1        0.0587
     27 CL        143.0501  143.3061  170.6115 Cl      1  UNL1       -0.0822
     28 C         141.0318  141.7876  170.0023 C.ar    1  UNL1        0.0228
     29 C         140.3500  140.8550  169.0456 C.ar    1  UNL1        0.0587
     30 CL        139.0137  140.2691  169.3931 Cl      1  UNL1       -0.0822
     31 C         141.0046  140.5083  167.7412 C.ar    1  UNL1        0.0160
@<TRIPOS>BOND
     1    15    16    1
     2    16    17    1
     3    16    18    1
     4    16     9    1
     5     9    10   am
     6    10    11    2
     7    10    12   am
     8    12     8    1
     9     8     7    1
    10     7     1    1
    11     1     2    1
    12     2     3    1
    13     3     4    1
    14     4     5    1
    15     5    19    1
    16    19    20    1
    17    20    21   am
    18    21    22    2
    19    21    24    1
    20    24    25   ar
    21    25    26   ar
    22    26    27    1
    23    26    28   ar
    24    28    29   ar
    25    29    30    1
    26    29    31   ar
    27     5     6    1
    28     6     1    1
    29    31    24   ar
    30     9    13    1
    31    12    14    1
    32    20    23    1
@<TRIPOS>MOLECULE
*****
 31 32 0 0 0
SMALL
GASTEIGER

@<TRIPOS>ATOM
      1 N         142.2597  143.9949  160.6643 N.3     1  UNL1       -0.2670
      2 C         141.7940  144.6196  159.3826 C.3     1  UNL1        0.1047
      3 C         140.5003  145.3777  159.3444 C.3     1  UNL1        0.1595
      4 O         139.6721  145.5110  160.5878 O.3     1  UNL1       -0.3516
      5 C         140.1377  144.8862  161.8695 C.3     1  UNL1        0.1507
      6 C         141.4315  144.1281  161.9078 C.3     1  UNL1        0.1039
      7 C         143.5535  143.2368  160.7025 C.3     1  UNL1        0.0938
      8 C         144.1946  142.9134  162.0194 C.3     1  UNL1        0.1082
      9 N         143.6427  139.2529  163.4500 N.am    1  UNL1       -0.2921
     10 C         143.3832  140.6814  163.0729 C.2     1  UNL1        0.3007
     11 O         142.0528  141.3062  163.3722 O.2     1  UNL1       -0.2528
     12 N         144.4541  141.4849  162.3965 N.am    1  UNL1       -0.2875
     13 H         144.5159  138.8428  163.2535 H       1  UNL1        0.1508
     14 H         145.3273  141.0748  162.2000 H       1  UNL1        0.1510
     15 C         143.0543  138.9310  165.4624 C.3     1  UNL1        0.0197
     16 C         142.5719  138.4493  164.1263 C.3     1  UNL1        0.0583
     17 C         142.0894  137.9676  162.7903 C.3     1  UNL1        0.0197
     18 C         141.5010  137.6457  164.8027 C.3     1  UNL1        0.0197
     19 C         139.3095  145.0194  163.1131 C.3     1  UNL1        0.1207
     20 N         139.5049  144.0613  164.2506 N.am    1  UNL1       -0.2985
     21 C         138.9152  142.6838  164.1806 C.2     1  UNL1        0.2460
     22 O         138.1302  142.2645  162.9731 O.2     1  UNL1       -0.2701
     23 H         140.0201  144.3365  165.0430 H       1  UNL1        0.1498
     24 C         139.1105  141.7257  165.3180 C.ar    1  UNL1        0.0550
     25 C         140.0073  142.0934  166.4628 C.ar    1  UNL1        0.0160
     26 C         140.2027  141.1353  167.6002 C.ar    1  UNL1        0.0587
     27 CL        141.0995  141.5030  168.7450 Cl      1  UNL1       -0.0822
     28 C         139.5012  139.8094  167.5929 C.ar    1  UNL1        0.0228
     29 C         138.6044  139.4417  166.4481 C.ar    1  UNL1        0.0587
     30 CL        137.9030  138.1158  166.4408 Cl      1  UNL1       -0.0822
     31 C         138.4091  140.3999  165.3107 C.ar    1  UNL1        0.0160
@<TRIPOS>BOND
     1    15    16    1
     2    16    17    1
     3    16    18    1
     4    16     9    1
     5     9    10   am
     6    10    11    2
     7    10    12   am
     8    12     8    1
     9     8     7    1
    10     7     1    1
    11     1     2    1
    12     2     3    1
    13     3     4    1
    14     4     5    1
    15     5    19    1
    16    19    20    1
    17    20    21   am
    18    21    22    2
    19    21    24    1
    20    24    25   ar
    21    25    26   ar
    22    26    27    1
    23    26    28   ar
    24    28    29   ar
    25    29    30    1
    26    29    31   ar
    27     5     6    1
    28     6     1    1
    29    31    24   ar
    30     9    13    1
    31    12    14    1
    32    20    23    1
@<TRIPOS>MOLECULE
*****
 31 32 0 0 0
SMALL
GASTEIGER

@<TRIPOS>ATOM
      1 N         139.7796  138.9970  160.3352 N.3     1  UNL1       -0.2670
      2 C         141.0282  138.9237  159.5071 C.3     1  UNL1        0.1047
      3 C         142.2531  138.2531  160.0548 C.3     1  UNL1        0.1595
      4 O         142.2294  137.6559  161.4305 O.3     1  UNL1       -0.3516
      5 C         140.9809  137.7293  162.2586 C.3     1  UNL1        0.1507
      6 C         139.7560  138.3998  161.7109 C.3     1  UNL1        0.1039
      7 C         138.5547  139.6676  159.7875 C.3     1  UNL1        0.0938
      8 C         137.3661  139.8974  160.6731 C.3     1  UNL1        0.1082
      9 N         138.2696  141.9458  163.9499 N.am    1  UNL1       -0.2921
     10 C         138.0718  141.6007  162.5037 C.2     1  UNL1        0.3007
     11 O         138.3817  142.6136  161.4417 O.2     1  UNL1       -0.2528
     12 N         137.5640  140.2425  162.1194 N.am    1  UNL1       -0.2875
     13 H         138.0662  141.2809  164.6469 H       1  UNL1        0.1508
     14 H         137.3605  139.5777  162.8164 H       1  UNL1        0.1510
     15 C         140.1881  142.8029  164.2407 C.3     1  UNL1        0.0197
     16 C         138.7774  143.3039  164.3343 C.3     1  UNL1        0.0583
     17 C         137.3667  143.8049  164.4278 C.3     1  UNL1        0.0197
     18 C         139.2852  144.6620  164.7186 C.3     1  UNL1        0.0197
     19 C         140.9572  137.1321  163.6344 C.3     1  UNL1        0.1207
     20 N         141.2279  137.9948  164.8313 N.am    1  UNL1       -0.2985
     21 C         140.1418  138.8665  165.3886 C.2     1  UNL1        0.2460
     22 O         138.7850  138.8755  164.7490 O.2     1  UNL1       -0.2701
     23 H         142.1184  137.9888  165.2511 H       1  UNL1        0.1498
     24 C         140.4124  139.7292  166.5854 C.ar    1  UNL1        0.0550
     25 C         141.6521  140.5721  166.6374 C.ar    1  UNL1        0.0160
     26 C         141.9228  141.4348  167.8343 C.ar    1  UNL1        0.0587
     27 CL        143.1625  142.2777  167.8863 Cl      1  UNL1       -0.0822
     28 C         140.9538  141.4546  168.9792 C.ar    1  UNL1        0.0228
     29 C         139.7141  140.6117  168.9271 C.ar    1  UNL1        0.0587
     30 CL        138.7451  140.6314  170.0719 Cl      1  UNL1       -0.0822
     31 C         139.4434  139.7489  167.7302 C.ar    1  UNL1        0.0160
@<TRIPOS>BOND
     1    15    16    1
     2    16    17    1
     3    16    18    1
     4    16     9    1
     5     9    10   am
     6    10    11    2
     7    10    12   am
     8    12     8    1
     9     8     7    1
    10     7     1    1
    11     1     2    1
    12     2     3    1
    13     3     4    1
    14     4     5    1
    15     5    19    1
    16    19    20    1
    17    20    21   am
    18    21    22    2
    19    21    24    1
    20    24    25   ar
    21    25    26   ar
    22    26    27    1
    23    26    28   ar
    24    28    29   ar
    25    29    30    1
    26    29    31   ar
    27     5     6    1
    28     6     1    1
    29    31    24   ar
    30     9    13    1
    31    12    14    1
    32    20    23    1
@<TRIPOS>MOLECULE
*****
 31 32 0 0 0
SMALL
GASTEIGER

@<TRIPOS>ATOM
      1 N         142.1111  144.4240  158.6721 N.3     1  UNL1       -0.2670
      2 C         141.3994  145.0466  157.5077 C.3     1  UNL1        0.1047
      3 C         140.2168  145.9392  157.7415 C.3     1  UNL1        0.1595
      4 O         139.7459  146.2093  159.1398 O.3     1  UNL1       -0.3516
      5 C         140.4575  145.5868  160.3042 C.3     1  UNL1        0.1507
      6 C         141.6402  144.6942  160.0704 C.3     1  UNL1        0.1039
      7 C         143.2937  143.5314  158.4382 C.3     1  UNL1        0.0938
      8 C         143.5690  142.3909  159.3728 C.3     1  UNL1        0.1082
      9 N         144.8330  142.7597  163.1166 N.am    1  UNL1       -0.2921
     10 C         143.9224  142.5630  161.9410 C.2     1  UNL1        0.3007
     11 O         142.4548  142.3416  162.1578 O.2     1  UNL1       -0.2528
     12 N         144.4795  142.5877  160.5484 N.am    1  UNL1       -0.2875
     13 H         145.7963  142.9050  162.9743 H       1  UNL1        0.1508
     14 H         145.4428  142.7330  160.4061 H       1  UNL1        0.1510
     15 C         144.0271  144.2124  164.4357 C.3     1  UNL1        0.0197
     16 C         144.2760  142.7351  164.5091 C.3     1  UNL1        0.0583
     17 C         144.5250  141.2577  164.5825 C.3     1  UNL1        0.0197
     18 C         143.7190  142.7103  165.9017 C.3     1  UNL1        0.0197
     19 C         139.9866  145.8568  161.7026 C.3     1  UNL1        0.1207
     20 N         140.1867  144.8259  162.7736 N.am    1  UNL1       -0.2985
     21 C         139.0090  144.0766  163.3228 C.2     1  UNL1        0.2460
     22 O         137.6312  144.3581  162.8008 O.2     1  UNL1       -0.2701
     23 H         141.0910  144.6411  163.1162 H       1  UNL1        0.1498
     24 C         139.2091  143.0456  164.3938 C.ar    1  UNL1        0.0550
     25 C         139.9288  143.4084  165.6589 C.ar    1  UNL1        0.0160
     26 C         140.1289  142.3775  166.7299 C.ar    1  UNL1        0.0587
     27 CL        140.8486  142.7403  167.9950 Cl      1  UNL1       -0.0822
     28 C         139.6093  140.9837  166.5359 C.ar    1  UNL1        0.0228
     29 C         138.8897  140.6210  165.2708 C.ar    1  UNL1        0.0587
     30 CL        138.3701  139.2273  165.0767 Cl      1  UNL1       -0.0822
     31 C         138.6896  141.6520  164.1997 C.ar    1  UNL1        0.0160
@<TRIPOS>BOND
     1    15    16    1
     2    16    17    1
     3    16    18    1
     4    16     9    1
     5     9    10   am
     6    10    11    2
     7    10    12   am
     8    12     8    1
     9     8     7    1
    10     7     1    1
    11     1     2    1
    12     2     3    1
    13     3     4    1
    14     4     5    1
    15     5    19    1
    16    19    20    1
    17    20    21   am
    18    21    22    2
    19    21    24    1
    20    24    25   ar
    21    25    26   ar
    22    26    27    1
    23    26    28   ar
    24    28    29   ar
    25    29    30    1
    26    29    31   ar
    27     5     6    1
    28     6     1    1
    29    31    24   ar
    30     9    13    1
    31    12    14    1
    32    20    23    1
@<TRIPOS>MOLECULE
*****
 31 32 0 0 0
SMALL
GASTEIGER

@<TRIPOS>ATOM
      1 N         140.9842  140.2677  158.1701 N.3     1  UNL1       -0.2670
      2 C         141.9606  140.0873  157.0458 C.3     1  UNL1        0.1047
      3 C         143.2377  139.3347  157.2751 C.3     1  UNL1        0.1595
      4 O         143.5384  138.7625  158.6286 O.3     1  UNL1       -0.3516
      5 C         142.5620  138.9429  159.7529 C.3     1  UNL1        0.1507
      6 C         141.2849  139.6955  159.5237 C.3     1  UNL1        0.1039
      7 C         139.7070  141.0203  157.9409 C.3     1  UNL1        0.0938
      8 C         139.6050  142.4630  158.3384 C.3     1  UNL1        0.1082
      9 N         137.6966  143.3426  161.7052 N.am    1  UNL1       -0.2921
     10 C         138.7750  142.8991  160.7615 C.2     1  UNL1        0.3007
     11 O         140.1016  142.4484  161.2970 O.2     1  UNL1       -0.2528
     12 N         138.5267  142.9065  159.2821 N.am    1  UNL1       -0.2875
     13 H         136.8259  143.6384  161.3536 H       1  UNL1        0.1508
     14 H         137.6559  143.2023  158.9306 H       1  UNL1        0.1510
     15 C         138.4783  144.7348  163.1018 C.3     1  UNL1        0.0197
     16 C         137.9449  143.3353  163.1844 C.3     1  UNL1        0.0583
     17 C         137.4115  141.9358  163.2670 C.3     1  UNL1        0.0197
     18 C         138.1932  143.3279  164.6638 C.3     1  UNL1        0.0197
     19 C         142.8627  138.3706  161.1065 C.3     1  UNL1        0.1207
     20 N         142.2840  139.0071  162.3353 N.am    1  UNL1       -0.2985
     21 C         141.1050  138.3813  163.0198 C.2     1  UNL1        0.2460
     22 O         140.5048  137.1190  162.4755 O.2     1  UNL1       -0.2701
     23 H         142.6779  139.8357  162.6925 H       1  UNL1        0.1498
     24 C         140.5263  139.0179  164.2486 C.ar    1  UNL1        0.0550
     25 C         139.3581  138.3829  164.9429 C.ar    1  UNL1        0.0160
     26 C         138.7794  139.0194  166.1716 C.ar    1  UNL1        0.0587
     27 CL        137.6112  138.3844  166.8660 Cl      1  UNL1       -0.0822
     28 C         139.3689  140.2910  166.7061 C.ar    1  UNL1        0.0228
     29 C         140.5371  140.9260  166.0118 C.ar    1  UNL1        0.0587
     30 CL        141.1266  142.1975  166.5462 Cl      1  UNL1       -0.0822
     31 C         141.1158  140.2894  164.7830 C.ar    1  UNL1        0.0160
@<TRIPOS>BOND
     1    15    16    1
     2    16    17    1
     3    16    18    1
     4    16     9    1
     5     9    10   am
     6    10    11    2
     7    10    12   am
     8    12     8    1
     9     8     7    1
    10     7     1    1
    11     1     2    1
    12     2     3    1
    13     3     4    1
    14     4     5    1
    15     5    19    1
    16    19    20    1
    17    20    21   am
    18    21    22    2
    19    21    24    1
    20    24    25   ar
    21    25    26   ar
    22    26    27    1
    23    26    28   ar
    24    28    29   ar
    25    29    30    1
    26    29    31   ar
    27     5     6    1
    28     6     1    1
    29    31    24   ar
    30     9    13    1
    31    12    14    1
    32    20    23    1
@<TRIPOS>MOLECULE
*****
 31 32 0 0 0
SMALL
GASTEIGER

@<TRIPOS>ATOM
      1 N         139.1159  139.4299  159.9457 N.3     1  UNL1       -0.2670
      2 C         140.4492  138.9144  159.4913 C.3     1  UNL1        0.1047
      3 C         141.2577  138.0288  160.3924 C.3     1  UNL1        0.1595
      4 O         140.7329  137.6586  161.7479 O.3     1  UNL1       -0.3516
      5 C         139.3996  138.1741  162.2023 C.3     1  UNL1        0.1507
      6 C         138.5911  139.0597  161.3012 C.3     1  UNL1        0.1039
      7 C         138.3075  140.3155  159.0445 C.3     1  UNL1        0.0938
      8 C         138.6024  141.7846  158.9752 C.3     1  UNL1        0.1082
      9 N         140.0645  143.5713  162.2033 N.am    1  UNL1       -0.2921
     10 C         139.0910  142.9556  161.2424 C.2     1  UNL1        0.3007
     11 O         137.6326  142.8953  161.5878 O.2     1  UNL1       -0.2528
     12 N         139.5759  142.4002  159.9361 N.am    1  UNL1       -0.2875
     13 H         141.0217  143.6109  161.9765 H       1  UNL1        0.1508
     14 H         140.5332  142.4398  159.7094 H       1  UNL1        0.1510
     15 C         139.7999  142.7925  164.1586 C.3     1  UNL1        0.0197
     16 C         139.5796  144.1267  163.5095 C.3     1  UNL1        0.0583
     17 C         139.3592  145.4609  162.8605 C.3     1  UNL1        0.0197
     18 C         139.0946  144.6821  164.8158 C.3     1  UNL1        0.0197
     19 C         138.8747  137.8040  163.5579 C.3     1  UNL1        0.1207
     20 N         139.0750  138.7323  164.7189 N.am    1  UNL1       -0.2985
     21 C         140.3879  138.7538  165.4442 C.2     1  UNL1        0.2460
     22 O         141.5003  137.8468  165.0085 O.2     1  UNL1       -0.2701
     23 H         138.3449  139.3276  165.0049 H       1  UNL1        0.1498
     24 C         140.5883  139.6821  166.6052 C.ar    1  UNL1        0.0550
     25 C         139.5869  139.7139  167.7216 C.ar    1  UNL1        0.0160
     26 C         139.7873  140.6423  168.8826 C.ar    1  UNL1        0.0587
     27 CL        138.7860  140.6741  169.9990 Cl      1  UNL1       -0.0822
     28 C         140.9890  141.5389  168.9272 C.ar    1  UNL1        0.0228
     29 C         141.9904  141.5071  167.8109 C.ar    1  UNL1        0.0587
     30 CL        143.1921  142.4037  167.8555 Cl      1  UNL1       -0.0822
     31 C         141.7900  140.5787  166.6498 C.ar    1  UNL1        0.0160
@<TRIPOS>BOND
     1    15    16    1
     2    16    17    1
     3    16    18    1
     4    16     9    1
     5     9    10   am
     6    10    11    2
     7    10    12   am
     8    12     8    1
     9     8     7    1
    10     7     1    1
    11     1     2    1
    12     2     3    1
    13     3     4    1
    14     4     5    1
    15     5    19    1
    16    19    20    1
    17    20    21   am
    18    21    22    2
    19    21    24    1
    20    24    25   ar
    21    25    26   ar
    22    26    27    1
    23    26    28   ar
    24    28    29   ar
    25    29    30    1
    26    29    31   ar
    27     5     6    1
    28     6     1    1
    29    31    24   ar
    30     9    13    1
    31    12    14    1
    32    20    23    1
