@<TRIPOS>MOLECULE
*****
 30 33 0 0 0
SMALL
GASTEIGER

@<TRIPOS>ATOM
      1 N         138.4551  139.9698  160.5936 N.3     1  UNL1       -0.2683
      2 C         138.1361  141.2867  161.2369 C.3     1  UNL1        0.0771
      3 C         138.0698  141.3947  162.7315 C.3     1  UNL1        0.0434
      4 C         138.3225  140.1858  163.5828 C.ar    1  UNL1       -0.0234
      5 C         138.2563  140.2939  165.0775 C.ar    1  UNL1       -0.0045
      6 C         138.5090  139.0850  165.9288 C.ar    1  UNL1       -0.0002
      7 C         138.8280  137.7680  165.2854 C.ar    1  UNL1       -0.0003
      8 C         138.8943  137.6600  163.7908 C.ar    1  UNL1       -0.0032
      9 C         138.6416  138.8689  162.9395 C.ar    1  UNL1       -0.0101
     10 C         138.7078  138.7609  161.4449 C.3     1  UNL1        0.0989
     11 C         138.4427  139.1930  167.4234 C.2     1  UNL1        0.0047
     12 C         139.4433  140.0337  168.1597 C.2     1  UNL1        0.0598
     13 C         139.3770  140.1417  169.6544 C.2     1  UNL1        0.2679
     14 O         138.0603  140.0003  170.3589 O.2     1  UNL1       -0.2681
     15 N         140.6274  140.3912  170.4445 N.am    1  UNL1       -0.1934
     16 O         140.5611  140.4992  171.9391 O.3     1  UNL1       -0.2949
     17 H         141.4916  140.4840  169.9821 H       1  UNL1        0.1825
     18 H         139.6432  140.3848  172.2312 H       1  UNL1        0.2414
     19 C         138.5214  139.8617  159.0989 C.3     1  UNL1        0.0771
     20 C         139.8016  140.1699  158.3807 C.3     1  UNL1        0.0446
     21 C         141.0307  137.5980  156.7920 C.3     1  UNL1        0.0517
     22 C         141.6228  138.2494  158.0065 C.2     1  UNL1        0.0551
     23 N         142.8838  137.8330  158.7040 N.2     1  UNL1       -0.2503
     24 C         143.0982  138.7579  159.8654 C.2     1  UNL1        0.0770
     25 C         144.1752  138.8281  160.9071 C.2     1  UNL1        0.0184
     26 C         144.1238  139.8861  161.9689 C.2     1  UNL1       -0.0027
     27 C         142.9953  140.8742  161.9892 C.2     1  UNL1       -0.0213
     28 C         141.9183  140.8040  160.9475 C.3     1  UNL1        0.0535
     29 C         141.9697  139.7458  159.8856 C.2     1  UNL1       -0.0030
     30 C         141.0579  139.4316  158.7368 C.2     1  UNL1       -0.0094
@<TRIPOS>BOND
     1    21    22    1
     2    22    23    2
     3    23    24    1
     4    24    25    2
     5    25    26    1
     6    26    27    2
     7    27    28    1
     8    28    29    1
     9    29    30    2
    10    30    20    1
    11    20    19    1
    12    19     1    1
    13     1     2    1
    14     2     3    1
    15     3     4    1
    16     4     5   ar
    17     5     6   ar
    18     6    11    1
    19    11    12    2
    20    12    13    1
    21    13    14    2
    22    13    15   am
    23    15    16    1
    24     6     7   ar
    25     7     8   ar
    26     8     9   ar
    27     9    10    1
    28    30    22    1
    29    10     1    1
    30    29    24    1
    31     9     4   ar
    32    15    17    1
    33    16    18    1
@<TRIPOS>MOLECULE
*****
 30 33 0 0 0
SMALL
GASTEIGER

@<TRIPOS>ATOM
      1 N         143.8549  139.7257  162.2355 N.3     1  UNL1       -0.2683
      2 C         143.5636  141.1945  162.1483 C.3     1  UNL1        0.0771
      3 C         143.1637  141.9541  163.3784 C.3     1  UNL1        0.0434
      4 C         143.0551  141.2448  164.6956 C.ar    1  UNL1       -0.0234
      5 C         142.6552  142.0044  165.9258 C.ar    1  UNL1       -0.0045
      6 C         142.5467  141.2951  167.2430 C.ar    1  UNL1       -0.0002
      7 C         142.8380  139.8262  167.3301 C.ar    1  UNL1       -0.0003
      8 C         143.2379  139.0667  166.1000 C.ar    1  UNL1       -0.0032
      9 C         143.3465  139.7760  164.7828 C.ar    1  UNL1       -0.0101
     10 C         143.7464  139.0164  163.5527 C.3     1  UNL1        0.0989
     11 C         142.1468  142.0546  168.4731 C.2     1  UNL1        0.0047
     12 C         140.7193  142.4735  168.6650 C.2     1  UNL1        0.0598
     13 C         140.3194  143.2330  169.8952 C.2     1  UNL1        0.2679
     14 O         141.1192  144.4234  170.3347 O.2     1  UNL1       -0.2681
     15 N         139.1197  142.8021  170.6858 N.am    1  UNL1       -0.1934
     16 O         138.7198  143.5616  171.9159 O.3     1  UNL1       -0.2949
     17 H         138.5947  142.0208  170.3973 H       1  UNL1        0.1825
     18 H         139.3374  144.2961  172.0574 H       1  UNL1        0.2414
     19 C         144.2548  138.9661  161.0054 C.3     1  UNL1        0.0771
     20 C         143.3606  137.8902  160.4644 C.3     1  UNL1        0.0446
     21 C         141.8316  138.8524  157.7467 C.3     1  UNL1        0.0517
     22 C         141.1855  138.5820  159.0732 C.2     1  UNL1        0.0551
     23 N         139.7231  138.7064  159.3833 N.2     1  UNL1       -0.2503
     24 C         139.5222  138.3410  160.8242 C.2     1  UNL1        0.0770
     25 C         138.2937  138.2819  161.6828 C.2     1  UNL1        0.0184
     26 C         138.4032  137.8726  163.1217 C.2     1  UNL1       -0.0027
     27 C         139.7413  137.5223  163.7021 C.2     1  UNL1       -0.0213
     28 C         140.9699  137.5814  162.8435 C.3     1  UNL1        0.0535
     29 C         140.8603  137.9908  161.4046 C.2     1  UNL1       -0.0030
     30 C         141.8882  138.1397  160.3224 C.2     1  UNL1       -0.0094
@<TRIPOS>BOND
     1    21    22    1
     2    22    23    2
     3    23    24    1
     4    24    25    2
     5    25    26    1
     6    26    27    2
     7    27    28    1
     8    28    29    1
     9    29    30    2
    10    30    20    1
    11    20    19    1
    12    19     1    1
    13     1     2    1
    14     2     3    1
    15     3     4    1
    16     4     5   ar
    17     5     6   ar
    18     6    11    1
    19    11    12    2
    20    12    13    1
    21    13    14    2
    22    13    15   am
    23    15    16    1
    24     6     7   ar
    25     7     8   ar
    26     8     9   ar
    27     9    10    1
    28    30    22    1
    29    10     1    1
    30    29    24    1
    31     9     4   ar
    32    15    17    1
    33    16    18    1
@<TRIPOS>MOLECULE
*****
 30 33 0 0 0
SMALL
GASTEIGER

@<TRIPOS>ATOM
      1 N         138.4398  139.9473  160.5773 N.3     1  UNL1       -0.2683
      2 C         138.0631  141.2525  161.2134 C.3     1  UNL1        0.0771
      3 C         137.9874  141.3644  162.7073 C.3     1  UNL1        0.0434
      4 C         138.2885  140.1713  163.5650 C.ar    1  UNL1       -0.0234
      5 C         138.2128  140.2834  165.0590 C.ar    1  UNL1       -0.0045
      6 C         138.5139  139.0902  165.9168 C.ar    1  UNL1       -0.0002
      7 C         138.8907  137.7851  165.2806 C.ar    1  UNL1       -0.0003
      8 C         138.9664  137.6731  163.7867 C.ar    1  UNL1       -0.0032
      9 C         138.6653  138.8662  162.9290 C.ar    1  UNL1       -0.0101
     10 C         138.7409  138.7542  161.4351 C.3     1  UNL1        0.0989
     11 C         138.4383  139.2022  167.4106 C.2     1  UNL1        0.0047
     12 C         139.4495  140.0243  168.1533 C.2     1  UNL1        0.0598
     13 C         139.3738  140.1363  169.6473 C.2     1  UNL1        0.2679
     14 O         138.0560  139.9756  170.3456 O.2     1  UNL1       -0.2681
     15 N         140.6159  140.4089  170.4428 N.am    1  UNL1       -0.1934
     16 O         140.5402  140.5209  171.9367 O.3     1  UNL1       -0.2949
     17 H         141.4808  140.5143  169.9845 H       1  UNL1        0.1825
     18 H         139.6228  140.3925  172.2245 H       1  UNL1        0.2414
     19 C         138.5155  139.8353  159.0834 C.3     1  UNL1        0.0771
     20 C         139.7791  140.2084  158.3663 C.3     1  UNL1        0.0446
     21 C         142.3625  140.3644  160.3541 C.3     1  UNL1        0.0517
     22 C         142.1355  139.3402  159.2820 C.2     1  UNL1        0.0551
     23 N         143.0562  138.2078  158.9352 N.2     1  UNL1       -0.2503
     24 C         142.4377  137.4362  157.8073 C.2     1  UNL1        0.0770
     25 C         142.8925  136.2215  157.0539 C.2     1  UNL1        0.0184
     26 C         142.0446  135.6623  155.9503 C.2     1  UNL1       -0.0027
     27 C         140.7416  136.3178  155.5999 C.2     1  UNL1       -0.0213
     28 C         140.2868  137.5325  156.3532 C.3     1  UNL1        0.0535
     29 C         141.1348  138.0918  157.4569 C.2     1  UNL1       -0.0030
     30 C         140.9481  139.2684  158.3683 C.2     1  UNL1       -0.0094
@<TRIPOS>BOND
     1    21    22    1
     2    22    23    2
     3    23    24    1
     4    24    25    2
     5    25    26    1
     6    26    27    2
     7    27    28    1
     8    28    29    1
     9    29    30    2
    10    30    20    1
    11    20    19    1
    12    19     1    1
    13     1     2    1
    14     2     3    1
    15     3     4    1
    16     4     5   ar
    17     5     6   ar
    18     6    11    1
    19    11    12    2
    20    12    13    1
    21    13    14    2
    22    13    15   am
    23    15    16    1
    24     6     7   ar
    25     7     8   ar
    26     8     9   ar
    27     9    10    1
    28    30    22    1
    29    10     1    1
    30    29    24    1
    31     9     4   ar
    32    15    17    1
    33    16    18    1
@<TRIPOS>MOLECULE
*****
 30 33 0 0 0
SMALL
GASTEIGER

@<TRIPOS>ATOM
      1 N         140.2129  142.6602  165.9539 N.3     1  UNL1       -0.2683
      2 C         141.4379  142.0373  165.3528 C.3     1  UNL1        0.0771
      3 C         142.3191  141.1575  166.1890 C.3     1  UNL1        0.0434
      4 C         141.9754  140.9006  167.6263 C.ar    1  UNL1       -0.0234
      5 C         142.8567  140.0207  168.4626 C.ar    1  UNL1       -0.0045
      6 C         142.5129  139.7638  169.8999 C.ar    1  UNL1       -0.0002
      7 C         141.2878  140.3868  170.5009 C.ar    1  UNL1       -0.0003
      8 C         140.4066  141.2666  169.6647 C.ar    1  UNL1       -0.0032
      9 C         140.7504  141.5235  168.2274 C.ar    1  UNL1       -0.0101
     10 C         139.8691  142.4033  167.3911 C.3     1  UNL1        0.0989
     11 C         143.3942  138.8840  170.7361 C.2     1  UNL1        0.0047
     12 C         143.5431  137.4308  170.3956 C.2     1  UNL1        0.0598
     13 C         144.4244  136.5510  171.2319 C.2     1  UNL1        0.2679
     14 O         145.9020  136.8031  171.2852 O.2     1  UNL1       -0.2681
     15 N         143.8279  135.4191  172.0148 N.am    1  UNL1       -0.1934
     16 O         144.7091  134.5393  172.8511 O.3     1  UNL1       -0.2949
     17 H         142.8580  135.2537  171.9799 H       1  UNL1        0.1825
     18 H         145.6292  134.8368  172.7745 H       1  UNL1        0.2414
     19 C         139.3316  143.5400  165.1176 C.3     1  UNL1        0.0771
     20 C         138.1466  142.9563  164.4069 C.3     1  UNL1        0.0446
     21 C         138.3094  142.7632  161.1534 C.3     1  UNL1        0.0517
     22 C         138.3730  141.6091  162.1094 C.2     1  UNL1        0.0551
     23 N         138.5225  140.1635  161.7377 N.2     1  UNL1       -0.2503
     24 C         138.5402  139.3589  163.0036 C.2     1  UNL1        0.0770
     25 C         138.6646  137.8853  163.2546 C.2     1  UNL1        0.0184
     26 C         138.6503  137.3600  164.6595 C.2     1  UNL1       -0.0027
     27 C         138.5117  138.3082  165.8135 C.2     1  UNL1       -0.0213
     28 C         138.3872  139.7818  165.5625 C.3     1  UNL1        0.0535
     29 C         138.4015  140.3072  164.1576 C.2     1  UNL1       -0.0030
     30 C         138.2982  141.6978  163.6049 C.2     1  UNL1       -0.0094
@<TRIPOS>BOND
     1    21    22    1
     2    22    23    2
     3    23    24    1
     4    24    25    2
     5    25    26    1
     6    26    27    2
     7    27    28    1
     8    28    29    1
     9    29    30    2
    10    30    20    1
    11    20    19    1
    12    19     1    1
    13     1     2    1
    14     2     3    1
    15     3     4    1
    16     4     5   ar
    17     5     6   ar
    18     6    11    1
    19    11    12    2
    20    12    13    1
    21    13    14    2
    22    13    15   am
    23    15    16    1
    24     6     7   ar
    25     7     8   ar
    26     8     9   ar
    27     9    10    1
    28    30    22    1
    29    10     1    1
    30    29    24    1
    31     9     4   ar
    32    15    17    1
    33    16    18    1
@<TRIPOS>MOLECULE
*****
 30 33 0 0 0
SMALL
GASTEIGER

@<TRIPOS>ATOM
      1 N         139.3217  138.5422  163.1579 N.3     1  UNL1       -0.2683
      2 C         140.7449  138.8898  162.8361 C.3     1  UNL1        0.0771
      3 C         141.6434  139.4372  163.9051 C.3     1  UNL1        0.0434
      4 C         141.1187  139.6372  165.2961 C.ar    1  UNL1       -0.0234
      5 C         142.0173  140.1847  166.3652 C.ar    1  UNL1       -0.0045
      6 C         141.4925  140.3846  167.7561 C.ar    1  UNL1       -0.0002
      7 C         140.0692  140.0370  168.0779 C.ar    1  UNL1       -0.0003
      8 C         139.1707  139.4896  167.0089 C.ar    1  UNL1       -0.0032
      9 C         139.6955  139.2896  165.6179 C.ar    1  UNL1       -0.0101
     10 C         138.7970  138.7422  164.5489 C.3     1  UNL1        0.0989
     11 C         142.3910  140.9321  168.8252 C.2     1  UNL1        0.0047
     12 C         142.5055  142.4147  169.0220 C.2     1  UNL1        0.0598
     13 C         143.4041  142.9621  170.0912 C.2     1  UNL1        0.2679
     14 O         142.8143  143.5363  171.3451 O.2     1  UNL1       -0.2681
     15 N         144.8924  142.9354  169.9063 N.am    1  UNL1       -0.1934
     16 O         145.7909  143.4828  170.9753 O.3     1  UNL1       -0.2949
     17 H         145.2795  142.5585  169.0832 H       1  UNL1        0.1825
     18 H         145.2531  143.8123  171.7123 H       1  UNL1        0.2414
     19 C         138.4231  137.9947  162.0888 C.3     1  UNL1        0.0771
     20 C         137.4714  138.9047  161.3705 C.3     1  UNL1        0.0446
     21 C         138.5431  140.1122  158.5345 C.3     1  UNL1        0.0517
     22 C         138.3448  140.8865  159.8038 C.2     1  UNL1        0.0551
     23 N         138.6042  142.3519  159.9923 N.2     1  UNL1       -0.2503
     24 C         138.2719  142.7025  161.4125 C.2     1  UNL1        0.0770
     25 C         138.3325  143.9974  162.1672 C.2     1  UNL1        0.0184
     26 C         137.9283  144.0436  163.6109 C.2     1  UNL1       -0.0027
     27 C         137.4635  142.7949  164.3001 C.2     1  UNL1       -0.0213
     28 C         137.4029  141.5001  163.5453 C.3     1  UNL1        0.0535
     29 C         137.8071  141.4538  162.1016 C.2     1  UNL1       -0.0030
     30 C         137.8521  140.3316  161.1073 C.2     1  UNL1       -0.0094
@<TRIPOS>BOND
     1    21    22    1
     2    22    23    2
     3    23    24    1
     4    24    25    2
     5    25    26    1
     6    26    27    2
     7    27    28    1
     8    28    29    1
     9    29    30    2
    10    30    20    1
    11    20    19    1
    12    19     1    1
    13     1     2    1
    14     2     3    1
    15     3     4    1
    16     4     5   ar
    17     5     6   ar
    18     6    11    1
    19    11    12    2
    20    12    13    1
    21    13    14    2
    22    13    15   am
    23    15    16    1
    24     6     7   ar
    25     7     8   ar
    26     8     9   ar
    27     9    10    1
    28    30    22    1
    29    10     1    1
    30    29    24    1
    31     9     4   ar
    32    15    17    1
    33    16    18    1
@<TRIPOS>MOLECULE
*****
 30 33 0 0 0
SMALL
GASTEIGER

@<TRIPOS>ATOM
      1 N         142.5127  138.0226  161.7899 N.3     1  UNL1       -0.2683
      2 C         143.4491  138.8166  162.6517 C.3     1  UNL1        0.0771
      3 C         142.9919  139.3224  163.9878 C.3     1  UNL1        0.0434
      4 C         141.5983  139.0341  164.4621 C.ar    1  UNL1       -0.0234
      5 C         141.1411  139.5399  165.7982 C.ar    1  UNL1       -0.0045
      6 C         139.7476  139.2515  166.2725 C.ar    1  UNL1       -0.0002
      7 C         138.8113  138.4574  165.4107 C.ar    1  UNL1       -0.0003
      8 C         139.2685  137.9517  164.0746 C.ar    1  UNL1       -0.0032
      9 C         140.6620  138.2400  163.6003 C.ar    1  UNL1       -0.0101
     10 C         141.1192  137.7342  162.2642 C.3     1  UNL1        0.0989
     11 C         139.2904  139.7573  167.6086 C.2     1  UNL1        0.0047
     12 C         140.2803  140.3588  168.5617 C.2     1  UNL1        0.0598
     13 C         139.8230  140.8645  169.8978 C.2     1  UNL1        0.2679
     14 O         138.4276  140.5812  170.3695 O.2     1  UNL1       -0.2681
     15 N         140.7612  141.6535  170.7622 N.am    1  UNL1       -0.1934
     16 O         140.3040  142.1593  172.0983 O.3     1  UNL1       -0.2949
     17 H         141.6771  141.8395  170.4526 H       1  UNL1        0.1825
     18 H         139.3840  141.8909  172.2480 H       1  UNL1        0.2414
     19 C         142.9699  137.5168  160.4538 C.3     1  UNL1        0.0771
     20 C         142.7519  138.3462  159.2232 C.3     1  UNL1        0.0446
     21 C         139.5818  139.1186  159.2842 C.3     1  UNL1        0.0517
     22 C         140.2668  138.2874  158.2403 C.2     1  UNL1        0.0551
     23 N         139.6149  137.6652  157.0410 N.2     1  UNL1       -0.2503
     24 C         140.6693  136.9257  156.2718 C.2     1  UNL1        0.0770
     25 C         140.6108  136.1233  155.0058 C.2     1  UNL1        0.0184
     26 C         141.8557  135.4861  154.4636 C.2     1  UNL1       -0.0027
     27 C         143.1592  135.6511  155.1874 C.2     1  UNL1       -0.0213
     28 C         143.2176  136.4535  156.4534 C.3     1  UNL1        0.0535
     29 C         141.9726  137.0908  156.9956 C.2     1  UNL1       -0.0030
     30 C         141.7239  137.9323  158.2121 C.2     1  UNL1       -0.0094
@<TRIPOS>BOND
     1    21    22    1
     2    22    23    2
     3    23    24    1
     4    24    25    2
     5    25    26    1
     6    26    27    2
     7    27    28    1
     8    28    29    1
     9    29    30    2
    10    30    20    1
    11    20    19    1
    12    19     1    1
    13     1     2    1
    14     2     3    1
    15     3     4    1
    16     4     5   ar
    17     5     6   ar
    18     6    11    1
    19    11    12    2
    20    12    13    1
    21    13    14    2
    22    13    15   am
    23    15    16    1
    24     6     7   ar
    25     7     8   ar
    26     8     9   ar
    27     9    10    1
    28    30    22    1
    29    10     1    1
    30    29    24    1
    31     9     4   ar
    32    15    17    1
    33    16    18    1
@<TRIPOS>MOLECULE
*****
 30 33 0 0 0
SMALL
GASTEIGER

@<TRIPOS>ATOM
      1 N         142.3917  141.6060  165.8037 N.3     1  UNL1       -0.2683
      2 C         141.7156  140.3159  165.4453 C.3     1  UNL1        0.0771
      3 C         140.6707  139.7391  166.3539 C.3     1  UNL1        0.0434
      4 C         140.3019  140.4525  167.6208 C.ar    1  UNL1       -0.0234
      5 C         139.2570  139.8756  168.5294 C.ar    1  UNL1       -0.0045
      6 C         138.8882  140.5890  169.7963 C.ar    1  UNL1       -0.0002
      7 C         139.5643  141.8792  170.1546 C.ar    1  UNL1       -0.0003
      8 C         140.6092  142.4560  169.2461 C.ar    1  UNL1       -0.0032
      9 C         140.9780  141.7426  167.9792 C.ar    1  UNL1       -0.0101
     10 C         142.0229  142.3193  167.0706 C.3     1  UNL1        0.0989
     11 C         137.8433  140.0123  170.7049 C.2     1  UNL1        0.0047
     12 C         137.4397  138.5742  170.5662 C.2     1  UNL1        0.0598
     13 C         136.3948  137.9975  171.4748 C.2     1  UNL1        0.2679
     14 O         136.3411  136.5173  171.7117 O.2     1  UNL1       -0.2681
     15 N         135.4036  138.9010  172.1465 N.am    1  UNL1       -0.1934
     16 O         134.3587  138.3243  173.0551 O.3     1  UNL1       -0.2949
     17 H         135.4388  139.8725  171.9910 H       1  UNL1        0.1825
     18 H         134.4634  137.3610  173.0979 H       1  UNL1        0.2414
     19 C         143.4366  142.1828  164.8951 C.3     1  UNL1        0.0771
     20 C         143.1335  143.4097  164.0872 C.3     1  UNL1        0.0446
     21 C         143.2143  142.8693  160.8699 C.3     1  UNL1        0.0517
     22 C         141.9911  143.1767  161.6818 C.2     1  UNL1        0.0551
     23 N         140.5902  143.2897  161.1575 N.2     1  UNL1       -0.2503
     24 C         139.6873  143.6080  162.3123 C.2     1  UNL1        0.0770
     25 C         138.2066  143.8324  162.3965 C.2     1  UNL1        0.0184
     26 C         137.5687  144.1405  163.7186 C.2     1  UNL1       -0.0027
     27 C         138.4115  144.2242  164.9567 C.2     1  UNL1       -0.0213
     28 C         139.8922  143.9997  164.8725 C.3     1  UNL1        0.0535
     29 C         140.5301  143.6917  163.5503 C.2     1  UNL1       -0.0030
     30 C         141.9539  143.4251  163.1607 C.2     1  UNL1       -0.0094
@<TRIPOS>BOND
     1    21    22    1
     2    22    23    2
     3    23    24    1
     4    24    25    2
     5    25    26    1
     6    26    27    2
     7    27    28    1
     8    28    29    1
     9    29    30    2
    10    30    20    1
    11    20    19    1
    12    19     1    1
    13     1     2    1
    14     2     3    1
    15     3     4    1
    16     4     5   ar
    17     5     6   ar
    18     6    11    1
    19    11    12    2
    20    12    13    1
    21    13    14    2
    22    13    15   am
    23    15    16    1
    24     6     7   ar
    25     7     8   ar
    26     8     9   ar
    27     9    10    1
    28    30    22    1
    29    10     1    1
    30    29    24    1
    31     9     4   ar
    32    15    17    1
    33    16    18    1
@<TRIPOS>MOLECULE
*****
 30 33 0 0 0
SMALL
GASTEIGER

@<TRIPOS>ATOM
      1 N         139.4336  139.6402  161.9412 N.3     1  UNL1       -0.2683
      2 C         140.8801  139.9516  162.1872 C.3     1  UNL1        0.0771
      3 C         141.3956  140.0602  163.5916 C.3     1  UNL1        0.0434
      4 C         140.4645  139.8575  164.7500 C.ar    1  UNL1       -0.0234
      5 C         140.9801  139.9662  166.1545 C.ar    1  UNL1       -0.0045
      6 C         140.0490  139.7635  167.3130 C.ar    1  UNL1       -0.0002
      7 C         138.6024  139.4521  167.0669 C.ar    1  UNL1       -0.0003
      8 C         138.0869  139.3435  165.6625 C.ar    1  UNL1       -0.0032
      9 C         139.0180  139.5462  164.5041 C.ar    1  UNL1       -0.0101
     10 C         138.5025  139.4375  163.0997 C.3     1  UNL1        0.0989
     11 C         140.5644  139.8722  168.7174 C.2     1  UNL1        0.0047
     12 C         140.5505  141.1968  169.4211 C.2     1  UNL1        0.0598
     13 C         141.0660  141.3054  170.8256 C.2     1  UNL1        0.2679
     14 O         140.3918  142.2217  171.8032 O.2     1  UNL1       -0.2681
     15 N         142.2557  140.4977  171.2524 N.am    1  UNL1       -0.1934
     16 O         142.7712  140.6062  172.6568 O.3     1  UNL1       -0.2949
     17 H         142.6982  139.8962  170.6107 H       1  UNL1        0.1825
     18 H         142.2262  141.2365  173.1534 H       1  UNL1        0.2414
     19 C         138.9181  139.5315  160.5367 C.3     1  UNL1        0.0771
     20 C         138.4103  140.7519  159.8276 C.3     1  UNL1        0.0446
     21 C         140.6528  142.0519  157.8450 C.3     1  UNL1        0.0517
     22 C         140.1288  142.6687  159.1078 C.2     1  UNL1        0.0551
     23 N         140.5435  143.9914  159.6812 N.2     1  UNL1       -0.2503
     24 C         139.7690  144.2113  160.9468 C.2     1  UNL1        0.0770
     25 C         139.7618  145.3388  161.9361 C.2     1  UNL1        0.0184
     26 C         138.8613  145.2796  163.1342 C.2     1  UNL1       -0.0027
     27 C         137.9679  144.0929  163.3431 C.2     1  UNL1       -0.0213
     28 C         137.9751  142.9653  162.3539 C.3     1  UNL1        0.0535
     29 C         138.8757  143.0246  161.1557 C.2     1  UNL1       -0.0030
     30 C         139.0980  142.0712  160.0192 C.2     1  UNL1       -0.0094
@<TRIPOS>BOND
     1    21    22    1
     2    22    23    2
     3    23    24    1
     4    24    25    2
     5    25    26    1
     6    26    27    2
     7    27    28    1
     8    28    29    1
     9    29    30    2
    10    30    20    1
    11    20    19    1
    12    19     1    1
    13     1     2    1
    14     2     3    1
    15     3     4    1
    16     4     5   ar
    17     5     6   ar
    18     6    11    1
    19    11    12    2
    20    12    13    1
    21    13    14    2
    22    13    15   am
    23    15    16    1
    24     6     7   ar
    25     7     8   ar
    26     8     9   ar
    27     9    10    1
    28    30    22    1
    29    10     1    1
    30    29    24    1
    31     9     4   ar
    32    15    17    1
    33    16    18    1
@<TRIPOS>MOLECULE
*****
 30 33 0 0 0
SMALL
GASTEIGER

@<TRIPOS>ATOM
      1 N         139.5495  137.7858  164.4081 N.3     1  UNL1       -0.2683
      2 C         141.0336  137.6494  164.5778 C.3     1  UNL1        0.0771
      3 C         141.9382  137.7630  163.3867 C.3     1  UNL1        0.0434
      4 C         141.3587  138.0129  162.0259 C.ar    1  UNL1       -0.0234
      5 C         142.2634  138.1264  160.8348 C.ar    1  UNL1       -0.0045
      6 C         141.6840  138.3763  159.4740 C.ar    1  UNL1       -0.0002
      7 C         140.1998  138.5126  159.3043 C.ar    1  UNL1       -0.0003
      8 C         139.2952  138.3991  160.4954 C.ar    1  UNL1       -0.0032
      9 C         139.8746  138.1492  161.8562 C.ar    1  UNL1       -0.0101
     10 C         138.9700  138.0357  163.0473 C.3     1  UNL1        0.0989
     11 C         142.5886  138.4898  158.2829 C.2     1  UNL1        0.0047
     12 C         143.1109  139.8318  157.8630 C.2     1  UNL1        0.0598
     13 C         144.0155  139.9453  156.6718 C.2     1  UNL1        0.2679
     14 O         143.4847  139.6640  155.2974 O.2     1  UNL1       -0.2681
     15 N         145.4510  140.3401  156.8552 N.am    1  UNL1       -0.1934
     16 O         146.3556  140.4536  155.6641 O.3     1  UNL1       -0.2949
     17 H         145.7993  140.5248  157.7573 H       1  UNL1        0.1825
     18 H         145.8585  140.2401  154.8590 H       1  UNL1        0.2414
     19 C         138.6448  137.6722  165.5992 C.3     1  UNL1        0.0771
     20 C         138.0023  138.9003  166.1728 C.3     1  UNL1        0.0446
     21 C         140.2243  140.0202  168.2843 C.3     1  UNL1        0.0517
     22 C         139.7281  140.7369  167.0636 C.2     1  UNL1        0.0551
     23 N         140.1662  142.0943  166.5991 N.2     1  UNL1       -0.2503
     24 C         139.4156  142.4184  165.3415 C.2     1  UNL1        0.0770
     25 C         139.4368  143.6176  164.4407 C.2     1  UNL1        0.0184
     26 C         138.5562  143.6599  163.2272 C.2     1  UNL1       -0.0027
     27 C         137.6542  142.5028  162.9144 C.2     1  UNL1       -0.0213
     28 C         137.6330  141.3036  163.8152 C.3     1  UNL1        0.0535
     29 C         138.5136  141.2614  165.0287 C.2     1  UNL1       -0.0030
     30 C         138.7068  140.2222  166.0930 C.2     1  UNL1       -0.0094
@<TRIPOS>BOND
     1    21    22    1
     2    22    23    2
     3    23    24    1
     4    24    25    2
     5    25    26    1
     6    26    27    2
     7    27    28    1
     8    28    29    1
     9    29    30    2
    10    30    20    1
    11    20    19    1
    12    19     1    1
    13     1     2    1
    14     2     3    1
    15     3     4    1
    16     4     5   ar
    17     5     6   ar
    18     6    11    1
    19    11    12    2
    20    12    13    1
    21    13    14    2
    22    13    15   am
    23    15    16    1
    24     6     7   ar
    25     7     8   ar
    26     8     9   ar
    27     9    10    1
    28    30    22    1
    29    10     1    1
    30    29    24    1
    31     9     4   ar
    32    15    17    1
    33    16    18    1
