@<TRIPOS>MOLECULE
*****
 34 38 0 0 0
SMALL
GASTEIGER

@<TRIPOS>ATOM
      1 C         138.8639  141.0426  163.4797 C.3     1  UNL1        0.0904
      2 C         138.0454  140.8978  164.7283 C.3     1  UNL1        0.0386
      3 C         138.0925  139.6196  165.5119 C.3     1  UNL1        0.0594
      4 C         138.4379  138.2277  165.9515 C.3     1  UNL1        0.0174
      5 C         139.4103  137.6570  164.9622 C.3     1  UNL1        0.0174
      6 C         139.6660  138.6962  163.9112 C.3     1  UNL1        0.0594
      7 C         139.7297  139.9093  163.0148 C.3     1  UNL1        0.0386
      8 N         138.8515  139.9092  164.2509 N.3     1  UNL1       -0.2750
      9 C         138.2965  144.0177  164.6947 C.3     1  UNL1        0.0738
     10 C         138.5560  143.6883  163.2544 C.ar    1  UNL1        0.1433
     11 N         138.6002  144.6685  162.1199 N.ar    1  UNL1       -0.1337
     12 N         138.8884  143.9068  160.8603 N.ar    1  UNL1       -0.1337
     13 C         139.0222  142.4559  161.2162 C.ar    1  UNL1        0.1425
     14 N         138.8168  142.3208  162.6960 N.ar    1  UNL1       -0.3039
     15 C         139.3109  141.3364  160.2604 C.3     1  UNL1        0.0588
     16 C         140.6976  141.1507  159.7197 C.3     1  UNL1        0.0080
     17 C         138.2127  140.4027  159.8452 C.3     1  UNL1        0.0080
     18 C         138.8044  141.1874  163.4673 C.3     1  UNL1        0.0741
     19 C         140.0788  141.8440  163.0260 C.3     1  UNL1        0.0419
     20 C         141.0878  142.2837  164.0450 C.3     1  UNL1        0.1014
     21 C         142.2347  143.1594  163.6355 C.ar    1  UNL1        0.0251
     22 C         142.3899  144.6165  163.9561 C.ar    1  UNL1        0.0043
     23 C         143.6790  145.0892  163.3522 C.ar    1  UNL1        0.0072
     24 C         144.3205  143.9243  162.6583 C.ar    1  UNL1        0.0352
     25 S         143.4280  142.7316  162.8334 S.2     1  UNL1       -0.0892
     26 N         140.9499  141.8478  165.4737 N.am    1  UNL1       -0.3017
     27 C         141.7716  140.7047  165.9916 C.2     1  UNL1        0.2222
     28 O         142.7310  139.9975  165.0809 O.2     1  UNL1       -0.2751
     29 H         140.3202  142.3119  166.0714 H       1  UNL1        0.1497
     30 C         141.6337  140.2688  167.4202 C.3     1  UNL1        0.0765
     31 C         142.6691  139.5383  168.2230 C.3     1  UNL1        0.0091
     32 C         142.1116  139.3049  169.5958 C.3     1  UNL1        0.0005
     33 C         140.7316  139.8910  169.6415 C.3     1  UNL1        0.0005
     34 C         140.4363  140.4867  168.2969 C.3     1  UNL1        0.0091
@<TRIPOS>BOND
     1     9    10    1
     2    10    11   ar
     3    11    12   ar
     4    12    13   ar
     5    13    15    1
     6    15    16    1
     7    15    17    1
     8    13    14   ar
     9     1    14    1
    10     1     2    1
    11     3     2    1
    12     3     4    1
    13     4     5    1
    14     6     5    1
    15     6     7    1
    16     6     8    1
    17     8    18    1
    18    18    19    1
    19    20    19    1
    20    20    26    1
    21    26    27   am
    22    27    28    2
    23    27    30    1
    24    30    31    1
    25    31    32    1
    26    32    33    1
    27    33    34    1
    28    20    21    1
    29    21    22   ar
    30    22    23   ar
    31    23    24   ar
    32    24    25   ar
    33    14    10   ar
    34     7     1    1
    35    34    30    1
    36    25    21   ar
    37     8     3    1
    38    26    29    1
@<TRIPOS>MOLECULE
*****
 34 38 0 0 0
SMALL
GASTEIGER

@<TRIPOS>ATOM
      1 C         141.4194  143.1208  163.2383 C.3     1  UNL1        0.0904
      2 C         142.0646  144.1213  164.1508 C.3     1  UNL1        0.0386
      3 C         143.4405  143.8658  164.6909 C.3     1  UNL1        0.0594
      4 C         144.7642  143.2203  164.9754 C.3     1  UNL1        0.0174
      5 C         144.8135  141.9175  164.2336 C.3     1  UNL1        0.0174
      6 C         143.5202  141.7578  163.4907 C.3     1  UNL1        0.0594
      7 C         142.1500  141.8647  162.8660 C.3     1  UNL1        0.0386
      8 N         142.6716  142.9620  163.7733 N.3     1  UNL1       -0.2750
      9 C         139.0109  144.6862  164.7869 C.3     1  UNL1        0.0738
     10 C         138.9364  144.0957  163.4100 C.ar    1  UNL1        0.1433
     11 N         137.7418  144.1211  162.5031 N.ar    1  UNL1       -0.1337
     12 N         138.1106  143.4173  161.2309 N.ar    1  UNL1       -0.1337
     13 C         139.5331  142.9569  161.3514 C.ar    1  UNL1        0.1425
     14 N         140.0435  143.3762  162.6982 N.ar    1  UNL1       -0.3039
     15 C         140.3090  142.2086  160.3083 C.3     1  UNL1        0.0588
     16 C         141.3881  142.9047  159.5332 C.3     1  UNL1        0.0080
     17 C         140.0058  140.7641  160.0404 C.3     1  UNL1        0.0080
     18 C         141.2958  143.2175  163.2332 C.3     1  UNL1        0.0741
     19 C         140.2452  142.1504  163.3216 C.3     1  UNL1        0.0419
     20 C         140.0831  141.3605  164.5864 C.3     1  UNL1        0.1014
     21 C         139.6334  139.9308  164.5254 C.ar    1  UNL1        0.0251
     22 C         139.0617  139.1371  165.6625 C.ar    1  UNL1        0.0043
     23 C         138.7514  137.7596  165.1564 C.ar    1  UNL1        0.0072
     24 C         139.1314  137.7020  163.7064 C.ar    1  UNL1        0.0352
     25 S         139.6765  139.0439  163.3164 S.2     1  UNL1       -0.0892
     26 N         140.3707  142.0003  165.9123 N.am    1  UNL1       -0.3017
     27 C         141.5093  141.5040  166.7533 C.2     1  UNL1        0.2222
     28 O         142.3603  140.3679  166.2685 O.2     1  UNL1       -0.2751
     29 H         139.8122  142.7460  166.2306 H       1  UNL1        0.1497
     30 C         141.7968  142.1438  168.0792 C.3     1  UNL1        0.0765
     31 C         140.8200  142.9149  168.9164 C.3     1  UNL1        0.0091
     32 C         141.5312  143.3725  170.1554 C.3     1  UNL1        0.0005
     33 C         142.9476  142.8841  170.0838 C.3     1  UNL1        0.0005
     34 C         143.1118  142.1247  168.8006 C.3     1  UNL1        0.0091
@<TRIPOS>BOND
     1     9    10    1
     2    10    11   ar
     3    11    12   ar
     4    12    13   ar
     5    13    15    1
     6    15    16    1
     7    15    17    1
     8    13    14   ar
     9     1    14    1
    10     1     2    1
    11     3     2    1
    12     3     4    1
    13     4     5    1
    14     6     5    1
    15     6     7    1
    16     6     8    1
    17     8    18    1
    18    18    19    1
    19    20    19    1
    20    20    26    1
    21    26    27   am
    22    27    28    2
    23    27    30    1
    24    30    31    1
    25    31    32    1
    26    32    33    1
    27    33    34    1
    28    20    21    1
    29    21    22   ar
    30    22    23   ar
    31    23    24   ar
    32    24    25   ar
    33    14    10   ar
    34     7     1    1
    35    34    30    1
    36    25    21   ar
    37     8     3    1
    38    26    29    1
@<TRIPOS>MOLECULE
*****
 34 38 0 0 0
SMALL
GASTEIGER

@<TRIPOS>ATOM
      1 C         138.5314  140.6056  163.3595 C.3     1  UNL1        0.0904
      2 C         138.3037  140.9617  164.7987 C.3     1  UNL1        0.0386
      3 C         138.2820  139.8853  165.8432 C.3     1  UNL1        0.0594
      4 C         138.3386  138.5426  166.5095 C.3     1  UNL1        0.0174
      5 C         138.5890  137.5100  165.4506 C.3     1  UNL1        0.0174
      6 C         138.6870  138.2146  164.1300 C.3     1  UNL1        0.0594
      7 C         138.7373  139.1732  162.9648 C.3     1  UNL1        0.0386
      8 N         138.4973  139.6826  164.3727 N.3     1  UNL1       -0.2750
      9 C         138.1161  140.1739  160.1516 C.3     1  UNL1        0.0738
     10 C         138.3623  141.4836  160.8404 C.ar    1  UNL1        0.1433
     11 N         138.4608  142.8246  160.1757 N.ar    1  UNL1       -0.1337
     12 N         138.7126  143.8518  161.2394 N.ar    1  UNL1       -0.1337
     13 C         138.7697  143.1457  162.5615 C.ar    1  UNL1        0.1425
     14 N         138.5532  141.6820  162.3149 N.ar    1  UNL1       -0.3039
     15 C         139.0024  143.7900  163.8959 C.3     1  UNL1        0.0588
     16 C         137.8355  144.1918  164.7484 C.3     1  UNL1        0.0080
     17 C         140.4021  144.0325  164.3779 C.3     1  UNL1        0.0080
     18 C         138.5191  140.7590  163.3282 C.3     1  UNL1        0.0741
     19 C         139.7101  140.9070  162.4285 C.3     1  UNL1        0.0419
     20 C         141.0856  140.6157  162.9511 C.3     1  UNL1        0.1014
     21 C         142.0473  139.8135  162.1255 C.ar    1  UNL1        0.0251
     22 C         141.7933  138.4512  161.5514 C.ar    1  UNL1        0.0043
     23 C         143.0209  138.0286  160.8002 C.ar    1  UNL1        0.0072
     24 C         144.0336  139.1297  160.9100 C.ar    1  UNL1        0.0352
     25 S         143.4319  140.2329  161.7291 S.2     1  UNL1       -0.0892
     26 N         141.4995  141.1266  164.2994 N.am    1  UNL1       -0.3017
     27 C         141.9024  140.1624  165.3754 C.2     1  UNL1        0.2222
     28 O         141.8914  138.6873  165.1033 O.2     1  UNL1       -0.2751
     29 H         141.5067  142.0947  164.4780 H       1  UNL1        0.1497
     30 C         142.3163  140.6732  166.7236 C.3     1  UNL1        0.0765
     31 C         142.7330  142.0780  167.0443 C.3     1  UNL1        0.0091
     32 C         143.0604  142.1420  168.5068 C.3     1  UNL1        0.0005
     33 C         142.8460  140.7768  169.0900 C.3     1  UNL1        0.0005
     34 C         142.3861  139.8690  167.9878 C.3     1  UNL1        0.0091
@<TRIPOS>BOND
     1     9    10    1
     2    10    11   ar
     3    11    12   ar
     4    12    13   ar
     5    13    15    1
     6    15    16    1
     7    15    17    1
     8    13    14   ar
     9     1    14    1
    10     1     2    1
    11     3     2    1
    12     3     4    1
    13     4     5    1
    14     6     5    1
    15     6     7    1
    16     6     8    1
    17     8    18    1
    18    18    19    1
    19    20    19    1
    20    20    26    1
    21    26    27   am
    22    27    28    2
    23    27    30    1
    24    30    31    1
    25    31    32    1
    26    32    33    1
    27    33    34    1
    28    20    21    1
    29    21    22   ar
    30    22    23   ar
    31    23    24   ar
    32    24    25   ar
    33    14    10   ar
    34     7     1    1
    35    34    30    1
    36    25    21   ar
    37     8     3    1
    38    26    29    1
@<TRIPOS>MOLECULE
*****
 34 38 0 0 0
SMALL
GASTEIGER

@<TRIPOS>ATOM
      1 C         139.1948  141.2958  163.4127 C.3     1  UNL1        0.0904
      2 C         138.1738  141.7717  164.4032 C.3     1  UNL1        0.0386
      3 C         138.1788  143.2014  164.8572 C.3     1  UNL1        0.0594
      4 C         138.5487  144.6462  165.0167 C.3     1  UNL1        0.0174
      5 C         139.7305  144.9221  164.1351 C.3     1  UNL1        0.0174
      6 C         140.0910  143.6477  163.4308 C.3     1  UNL1        0.0594
      7 C         140.2208  142.2496  162.8763 C.3     1  UNL1        0.0386
      8 N         139.1320  142.5842  163.8771 N.3     1  UNL1       -0.2750
      9 C         138.4224  138.7053  165.2409 C.3     1  UNL1        0.0738
     10 C         138.8348  138.6754  163.7990 C.ar    1  UNL1        0.1433
     11 N         138.9645  137.4496  162.9442 N.ar    1  UNL1       -0.1337
     12 N         139.3997  137.8828  161.5757 N.ar    1  UNL1       -0.1337
     13 C         139.5389  139.3762  161.5846 C.ar    1  UNL1        0.1425
     14 N         139.1898  139.8661  162.9587 N.ar    1  UNL1       -0.3039
     15 C         139.9544  140.2300  160.4233 C.3     1  UNL1        0.0588
     16 C         138.9301  141.0355  159.6804 C.3     1  UNL1        0.0080
     17 C         141.3941  140.2782  160.0049 C.3     1  UNL1        0.0080
     18 C         139.1269  141.1546  163.4231 C.3     1  UNL1        0.0741
     19 C         140.4094  140.3780  163.3763 C.3     1  UNL1        0.0419
     20 C         141.3466  140.4065  164.5470 C.3     1  UNL1        0.1014
     21 C         142.8252  140.2820  164.3274 C.ar    1  UNL1        0.0251
     22 C         143.6843  141.2342  163.5494 C.ar    1  UNL1        0.0043
     23 C         145.0944  140.7241  163.5884 C.ar    1  UNL1        0.0072
     24 C         145.1067  139.4566  164.3906 C.ar    1  UNL1        0.0352
     25 S         143.7043  139.1834  164.8473 S.2     1  UNL1       -0.0892
     26 N         140.8053  140.5596  165.9376 N.am    1  UNL1       -0.3017
     27 C         141.0968  141.8037  166.7232 C.2     1  UNL1        0.2222
     28 O         141.9296  142.8948  166.1183 O.2     1  UNL1       -0.2751
     29 H         140.2587  139.8434  166.3347 H       1  UNL1        0.1497
     30 C         140.5555  141.9567  168.1138 C.3     1  UNL1        0.0765
     31 C         140.5822  143.2100  168.9374 C.3     1  UNL1        0.0091
     32 C         139.9356  142.9111  170.2575 C.3     1  UNL1        0.0005
     33 C         139.5092  141.4730  170.2497 C.3     1  UNL1        0.0005
     34 C         139.8923  140.8831  168.9248 C.3     1  UNL1        0.0091
@<TRIPOS>BOND
     1     9    10    1
     2    10    11   ar
     3    11    12   ar
     4    12    13   ar
     5    13    15    1
     6    15    16    1
     7    15    17    1
     8    13    14   ar
     9     1    14    1
    10     1     2    1
    11     3     2    1
    12     3     4    1
    13     4     5    1
    14     6     5    1
    15     6     7    1
    16     6     8    1
    17     8    18    1
    18    18    19    1
    19    20    19    1
    20    20    26    1
    21    26    27   am
    22    27    28    2
    23    27    30    1
    24    30    31    1
    25    31    32    1
    26    32    33    1
    27    33    34    1
    28    20    21    1
    29    21    22   ar
    30    22    23   ar
    31    23    24   ar
    32    24    25   ar
    33    14    10   ar
    34     7     1    1
    35    34    30    1
    36    25    21   ar
    37     8     3    1
    38    26    29    1
@<TRIPOS>MOLECULE
*****
 34 38 0 0 0
SMALL
GASTEIGER

@<TRIPOS>ATOM
      1 C         138.7239  140.8067  163.2415 C.3     1  UNL1        0.0904
      2 C         138.1811  141.0482  164.6188 C.3     1  UNL1        0.0386
      3 C         138.1121  139.9210  165.6060 C.3     1  UNL1        0.0594
      4 C         138.2278  138.5617  166.2296 C.3     1  UNL1        0.0174
      5 C         138.8147  137.6320  165.2092 C.3     1  UNL1        0.0174
      6 C         139.0617  138.4168  163.9549 C.3     1  UNL1        0.0594
      7 C         139.1976  139.4380  162.8514 C.3     1  UNL1        0.0386
      8 N         138.6275  139.8315  164.2002 N.3     1  UNL1       -0.2750
      9 C         138.7119  140.5133  159.9913 C.3     1  UNL1        0.0738
     10 C         138.7874  141.7991  160.7603 C.ar    1  UNL1        0.1433
     11 N         138.8706  143.1757  160.1703 N.ar    1  UNL1       -0.1337
     12 N         138.9275  144.1613  161.2996 N.ar    1  UNL1       -0.1337
     13 C         138.8795  143.3939  162.5875 C.ar    1  UNL1        0.1425
     14 N         138.7929  141.9340  162.2542 N.ar    1  UNL1       -0.3039
     15 C         138.9124  143.9829  163.9666 C.3     1  UNL1        0.0588
     16 C         140.2223  144.3731  164.5845 C.3     1  UNL1        0.0080
     17 C         137.6352  144.1818  164.7279 C.3     1  UNL1        0.0080
     18 C         138.6965  140.9587  163.2130 C.3     1  UNL1        0.0741
     19 C         139.9680  141.2210  162.4618 C.3     1  UNL1        0.0419
     20 C         141.2446  141.4653  163.2105 C.3     1  UNL1        0.1014
     21 C         142.4799  141.8846  162.4701 C.ar    1  UNL1        0.0251
     22 C         143.8374  142.1002  163.0707 C.ar    1  UNL1        0.0043
     23 C         144.7710  142.5107  161.9708 C.ar    1  UNL1        0.0072
     24 C         143.9905  142.5488  160.6903 C.ar    1  UNL1        0.0352
     25 S         142.5746  142.1618  160.9989 S.2     1  UNL1       -0.0892
     26 N         141.2860  141.2903  164.6997 N.am    1  UNL1       -0.3017
     27 C         141.9054  140.0599  165.2934 C.2     1  UNL1        0.2222
     28 O         142.4835  139.0044  164.3979 O.2     1  UNL1       -0.2751
     29 H         140.9066  141.9830  165.2875 H       1  UNL1        0.1497
     30 C         141.9468  139.8849  166.7825 C.3     1  UNL1        0.0765
     31 C         142.9377  139.0571  167.5459 C.3     1  UNL1        0.0091
     32 C         142.6079  139.1676  169.0050 C.3     1  UNL1        0.0005
     33 C         141.4131  140.0638  169.1435 C.3     1  UNL1        0.0005
     34 C         141.0045  140.5072  167.7699 C.3     1  UNL1        0.0091
@<TRIPOS>BOND
     1     9    10    1
     2    10    11   ar
     3    11    12   ar
     4    12    13   ar
     5    13    15    1
     6    15    16    1
     7    15    17    1
     8    13    14   ar
     9     1    14    1
    10     1     2    1
    11     3     2    1
    12     3     4    1
    13     4     5    1
    14     6     5    1
    15     6     7    1
    16     6     8    1
    17     8    18    1
    18    18    19    1
    19    20    19    1
    20    20    26    1
    21    26    27   am
    22    27    28    2
    23    27    30    1
    24    30    31    1
    25    31    32    1
    26    32    33    1
    27    33    34    1
    28    20    21    1
    29    21    22   ar
    30    22    23   ar
    31    23    24   ar
    32    24    25   ar
    33    14    10   ar
    34     7     1    1
    35    34    30    1
    36    25    21   ar
    37     8     3    1
    38    26    29    1
@<TRIPOS>MOLECULE
*****
 34 38 0 0 0
SMALL
GASTEIGER

@<TRIPOS>ATOM
      1 C         141.1683  143.0807  164.8609 C.3     1  UNL1        0.0904
      2 C         140.0791  143.0532  165.8918 C.3     1  UNL1        0.0386
      3 C         140.3425  142.4639  167.2458 C.3     1  UNL1        0.0594
      4 C         141.0288  141.8080  168.4072 C.3     1  UNL1        0.0174
      5 C         142.4386  141.4994  167.9985 C.3     1  UNL1        0.0174
      6 C         142.6238  141.9646  166.5845 C.3     1  UNL1        0.0594
      7 C         142.5210  142.5187  165.1840 C.3     1  UNL1        0.0386
      8 N         141.3283  142.5606  166.1193 N.3     1  UNL1       -0.2750
      9 C         138.2970  143.1171  163.3105 C.3     1  UNL1        0.0738
     10 C         139.5851  143.6868  162.7942 C.ar    1  UNL1        0.1433
     11 N         139.7795  144.3733  161.4748 N.ar    1  UNL1       -0.1337
     12 N         141.2193  144.7808  161.3720 N.ar    1  UNL1       -0.1337
     13 C         141.9149  144.3462  162.6279 C.ar    1  UNL1        0.1425
     14 N         140.9048  143.6701  163.5069 N.ar    1  UNL1       -0.3039
     15 C         143.3657  144.5516  162.9485 C.3     1  UNL1        0.0588
     16 C         143.7692  145.5528  163.9901 C.3     1  UNL1        0.0080
     17 C         144.4132  143.7559  162.2276 C.3     1  UNL1        0.0080
     18 C         141.0648  143.1500  164.7653 C.3     1  UNL1        0.0741
     19 C         141.5257  142.4315  163.5319 C.3     1  UNL1        0.0419
     20 C         141.2297  140.9711  163.3601 C.3     1  UNL1        0.1014
     21 C         142.0717  140.1384  162.4394 C.ar    1  UNL1        0.0251
     22 C         143.5706  140.0841  162.4228 C.ar    1  UNL1        0.0043
     23 C         143.9878  139.1260  161.3468 C.ar    1  UNL1        0.0072
     24 C         142.7468  138.5881  160.6984 C.ar    1  UNL1        0.0352
     25 S         141.5625  139.2138  161.3736 S.2     1  UNL1       -0.0892
     26 N         140.0916  140.3432  164.1089 N.am    1  UNL1       -0.3017
     27 C         140.3651  139.3053  165.1567 C.2     1  UNL1        0.2222
     28 O         141.7767  138.8952  165.4557 O.2     1  UNL1       -0.2751
     29 H         139.1652  140.6124  163.9127 H       1  UNL1        0.1497
     30 C         139.2271  138.6774  165.9055 C.3     1  UNL1        0.0765
     31 C         138.4603  139.3043  167.0319 C.3     1  UNL1        0.0091
     32 C         137.4153  138.3268  167.4819 C.3     1  UNL1        0.0005
     33 C         137.5363  137.0957  166.6335 C.3     1  UNL1        0.0005
     34 C         138.6560  137.3125  165.6592 C.3     1  UNL1        0.0091
@<TRIPOS>BOND
     1     9    10    1
     2    10    11   ar
     3    11    12   ar
     4    12    13   ar
     5    13    15    1
     6    15    16    1
     7    15    17    1
     8    13    14   ar
     9     1    14    1
    10     1     2    1
    11     3     2    1
    12     3     4    1
    13     4     5    1
    14     6     5    1
    15     6     7    1
    16     6     8    1
    17     8    18    1
    18    18    19    1
    19    20    19    1
    20    20    26    1
    21    26    27   am
    22    27    28    2
    23    27    30    1
    24    30    31    1
    25    31    32    1
    26    32    33    1
    27    33    34    1
    28    20    21    1
    29    21    22   ar
    30    22    23   ar
    31    23    24   ar
    32    24    25   ar
    33    14    10   ar
    34     7     1    1
    35    34    30    1
    36    25    21   ar
    37     8     3    1
    38    26    29    1
@<TRIPOS>MOLECULE
*****
 34 38 0 0 0
SMALL
GASTEIGER

@<TRIPOS>ATOM
      1 C         141.4974  142.8646  165.4890 C.3     1  UNL1        0.0904
      2 C         140.4675  142.8284  166.5790 C.3     1  UNL1        0.0386
      3 C         140.5711  141.8098  167.6751 C.3     1  UNL1        0.0594
      4 C         141.0556  140.6722  168.5243 C.3     1  UNL1        0.0174
      5 C         142.3045  140.1258  167.8986 C.3     1  UNL1        0.0174
      6 C         142.5920  140.9258  166.6627 C.3     1  UNL1        0.0594
      7 C         142.6308  141.8821  165.4952 C.3     1  UNL1        0.0386
      8 N         141.5207  141.9665  166.5246 N.3     1  UNL1       -0.2750
      9 C         143.9540  143.9335  163.6255 C.3     1  UNL1        0.0738
     10 C         142.5230  144.3746  163.5362 C.ar    1  UNL1        0.1433
     11 N         141.9700  145.3844  162.5747 N.ar    1  UNL1       -0.1337
     12 N         140.4991  145.5171  162.8370 N.ar    1  UNL1       -0.1337
     13 C         140.1430  144.5894  163.9606 C.ar    1  UNL1        0.1425
     14 N         141.3938  143.8833  164.3927 N.ar    1  UNL1       -0.3039
     15 C         138.7761  144.4009  164.5488 C.3     1  UNL1        0.0588
     16 C         137.7764  143.5224  163.8568 C.3     1  UNL1        0.0080
     17 C         138.4087  145.0909  165.8291 C.3     1  UNL1        0.0080
     18 C         141.4171  142.9852  165.4284 C.3     1  UNL1        0.0741
     19 C         141.5963  142.5690  163.9984 C.3     1  UNL1        0.0419
     20 C         140.6406  141.5952  163.3754 C.3     1  UNL1        0.1014
     21 C         140.6536  141.3765  161.8915 C.ar    1  UNL1        0.0251
     22 C         141.4915  142.1245  160.8973 C.ar    1  UNL1        0.0043
     23 C         141.1866  141.5817  159.5326 C.ar    1  UNL1        0.0072
     24 C         140.1603  140.4982  159.6834 C.ar    1  UNL1        0.0352
     25 S         139.8308  140.3714  161.1412 S.2     1  UNL1       -0.0892
     26 N         139.6718  140.8399  164.2363 N.am    1  UNL1       -0.3017
     27 C         139.9890  139.4400  164.6718 C.2     1  UNL1        0.2222
     28 O         141.2749  138.7954  164.2466 O.2     1  UNL1       -0.2751
     29 H         138.8278  141.2629  164.5154 H       1  UNL1        0.1497
     30 C         139.0202  138.6847  165.5327 C.3     1  UNL1        0.0765
     31 C         138.7112  137.2201  165.4363 C.3     1  UNL1        0.0091
     32 C         137.6904  136.8916  166.4851 C.3     1  UNL1        0.0005
     33 C         137.3684  138.1533  167.2297 C.3     1  UNL1        0.0005
     34 C         138.1903  139.2615  166.6410 C.3     1  UNL1        0.0091
@<TRIPOS>BOND
     1     9    10    1
     2    10    11   ar
     3    11    12   ar
     4    12    13   ar
     5    13    15    1
     6    15    16    1
     7    15    17    1
     8    13    14   ar
     9     1    14    1
    10     1     2    1
    11     3     2    1
    12     3     4    1
    13     4     5    1
    14     6     5    1
    15     6     7    1
    16     6     8    1
    17     8    18    1
    18    18    19    1
    19    20    19    1
    20    20    26    1
    21    26    27   am
    22    27    28    2
    23    27    30    1
    24    30    31    1
    25    31    32    1
    26    32    33    1
    27    33    34    1
    28    20    21    1
    29    21    22   ar
    30    22    23   ar
    31    23    24   ar
    32    24    25   ar
    33    14    10   ar
    34     7     1    1
    35    34    30    1
    36    25    21   ar
    37     8     3    1
    38    26    29    1
@<TRIPOS>MOLECULE
*****
 34 38 0 0 0
SMALL
GASTEIGER

@<TRIPOS>ATOM
      1 C         142.5988  142.6146  164.7445 C.3     1  UNL1        0.0904
      2 C         143.4225  142.1213  165.8970 C.3     1  UNL1        0.0386
      3 C         142.7806  141.8895  167.2327 C.3     1  UNL1        0.0594
      4 C         141.7617  141.8036  168.3302 C.3     1  UNL1        0.0174
      5 C         140.4399  142.2393  167.7706 C.3     1  UNL1        0.0174
      6 C         140.6419  142.5944  166.3273 C.3     1  UNL1        0.0594
      7 C         141.1331  142.8760  164.9278 C.3     1  UNL1        0.0386
      8 N         142.0886  142.3782  165.9949 N.3     1  UNL1       -0.2750
      9 C         145.4798  141.4318  163.7696 C.3     1  UNL1        0.0738
     10 C         144.5649  142.3028  162.9606 C.ar    1  UNL1        0.1433
     11 N         144.8136  142.7830  161.5615 N.ar    1  UNL1       -0.1337
     12 N         143.6431  143.6234  161.1450 N.ar    1  UNL1       -0.1337
     13 C         142.6710  143.6627  162.2865 C.ar    1  UNL1        0.1425
     14 N         143.2406  142.8464  163.4087 N.ar    1  UNL1       -0.3039
     15 C         141.3594  144.3903  162.3031 C.3     1  UNL1        0.0588
     16 C         141.2044  145.6383  163.1208 C.3     1  UNL1        0.0080
     17 C         140.2028  143.8701  161.5020 C.3     1  UNL1        0.0080
     18 C         142.7305  142.6101  164.6591 C.3     1  UNL1        0.0741
     19 C         142.2056  141.9069  163.4426 C.3     1  UNL1        0.0419
     20 C         142.0315  140.4171  163.4542 C.3     1  UNL1        0.1014
     21 C         142.7003  139.5756  162.4079 C.ar    1  UNL1        0.0251
     22 C         143.6103  138.4106  162.6624 C.ar    1  UNL1        0.0043
     23 C         144.0489  137.8665  161.3351 C.ar    1  UNL1        0.0072
     24 C         143.4100  138.6952  160.2604 C.ar    1  UNL1        0.0352
     25 S         142.5765  139.7515  160.9234 S.2     1  UNL1       -0.0892
     26 N         141.1886  139.7686  164.5121 N.am    1  UNL1       -0.3017
     27 C         139.7555  139.4302  164.2263 C.2     1  UNL1        0.2222
     28 O         139.1652  139.7404  162.8826 O.2     1  UNL1       -0.2751
     29 H         141.5760  139.5650  165.3940 H       1  UNL1        0.1497
     30 C         138.9127  138.7818  165.2841 C.3     1  UNL1        0.0765
     31 C         138.6460  137.3120  165.4209 C.3     1  UNL1        0.0091
     32 C         137.7570  137.1111  166.6123 C.3     1  UNL1        0.0005
     33 C         137.4743  138.4567  167.2118 C.3     1  UNL1        0.0005
     34 C         138.1885  139.4892  166.3909 C.3     1  UNL1        0.0091
@<TRIPOS>BOND
     1     9    10    1
     2    10    11   ar
     3    11    12   ar
     4    12    13   ar
     5    13    15    1
     6    15    16    1
     7    15    17    1
     8    13    14   ar
     9     1    14    1
    10     1     2    1
    11     3     2    1
    12     3     4    1
    13     4     5    1
    14     6     5    1
    15     6     7    1
    16     6     8    1
    17     8    18    1
    18    18    19    1
    19    20    19    1
    20    20    26    1
    21    26    27   am
    22    27    28    2
    23    27    30    1
    24    30    31    1
    25    31    32    1
    26    32    33    1
    27    33    34    1
    28    20    21    1
    29    21    22   ar
    30    22    23   ar
    31    23    24   ar
    32    24    25   ar
    33    14    10   ar
    34     7     1    1
    35    34    30    1
    36    25    21   ar
    37     8     3    1
    38    26    29    1
@<TRIPOS>MOLECULE
*****
 34 38 0 0 0
SMALL
GASTEIGER

@<TRIPOS>ATOM
      1 C         141.6442  143.1962  163.2682 C.3     1  UNL1        0.0904
      2 C         142.5153  143.4473  164.4632 C.3     1  UNL1        0.0386
      3 C         143.9078  142.8913  164.5063 C.3     1  UNL1        0.0594
      4 C         145.1697  142.1736  164.1287 C.3     1  UNL1        0.0174
      5 C         144.9677  141.5626  162.7738 C.3     1  UNL1        0.0174
      6 C         143.5809  141.9026  162.3140 C.3     1  UNL1        0.0594
      7 C         142.1655  142.3890  162.1164 C.3     1  UNL1        0.0386
      8 N         142.9259  142.7238  163.3848 N.3     1  UNL1       -0.2750
      9 C         139.7029  143.7090  165.8408 C.3     1  UNL1        0.0738
     10 C         139.3594  143.9880  164.4075 C.ar    1  UNL1        0.1433
     11 N         138.0633  144.5516  163.9050 N.ar    1  UNL1       -0.1337
     12 N         138.1546  144.6643  162.4121 N.ar    1  UNL1       -0.1337
     13 C         139.5070  144.1703  161.9918 C.ar    1  UNL1        0.1425
     14 N         140.2517  143.7523  163.2250 N.ar    1  UNL1       -0.3039
     15 C         140.0242  144.1057  160.5852 C.3     1  UNL1        0.0588
     16 C         141.0155  145.1229  160.1031 C.3     1  UNL1        0.0080
     17 C         139.5500  143.0237  159.6607 C.3     1  UNL1        0.0080
     18 C         141.5334  143.2799  163.3416 C.3     1  UNL1        0.0741
     19 C         140.3687  142.3674  163.0950 C.3     1  UNL1        0.0419
     20 C         140.4055  140.9530  163.5930 C.3     1  UNL1        0.1014
     21 C         139.7814  139.8560  162.7824 C.ar    1  UNL1        0.0251
     22 C         138.3277  139.4865  162.7701 C.ar    1  UNL1        0.0043
     23 C         138.1494  138.3379  161.8219 C.ar    1  UNL1        0.0072
     24 C         139.4930  137.9976  161.2482 C.ar    1  UNL1        0.0352
     25 S         140.5016  138.9358  161.8418 S.2     1  UNL1       -0.0892
     26 N         141.0665  140.6355  164.9016 N.am    1  UNL1       -0.3017
     27 C         140.2308  140.3321  166.1098 C.2     1  UNL1        0.2222
     28 O         138.7342  140.3462  166.0094 O.2     1  UNL1       -0.2751
     29 H         142.0487  140.6262  164.9676 H       1  UNL1        0.1497
     30 C         140.8918  140.0146  167.4183 C.3     1  UNL1        0.0765
     31 C         140.2442  140.0723  168.7701 C.3     1  UNL1        0.0091
     32 C         141.2685  139.6770  169.7921 C.3     1  UNL1        0.0005
     33 C         142.5492  139.3750  169.0720 C.3     1  UNL1        0.0005
     34 C         142.3163  139.5836  167.6049 C.3     1  UNL1        0.0091
@<TRIPOS>BOND
     1     9    10    1
     2    10    11   ar
     3    11    12   ar
     4    12    13   ar
     5    13    15    1
     6    15    16    1
     7    15    17    1
     8    13    14   ar
     9     1    14    1
    10     1     2    1
    11     3     2    1
    12     3     4    1
    13     4     5    1
    14     6     5    1
    15     6     7    1
    16     6     8    1
    17     8    18    1
    18    18    19    1
    19    20    19    1
    20    20    26    1
    21    26    27   am
    22    27    28    2
    23    27    30    1
    24    30    31    1
    25    31    32    1
    26    32    33    1
    27    33    34    1
    28    20    21    1
    29    21    22   ar
    30    22    23   ar
    31    23    24   ar
    32    24    25   ar
    33    14    10   ar
    34     7     1    1
    35    34    30    1
    36    25    21   ar
    37     8     3    1
    38    26    29    1
