@<TRIPOS>MOLECULE
*****
 26 29 0 0 0
SMALL
GASTEIGER

@<TRIPOS>ATOM
      1 C         141.0382  140.1946  163.5921 C.ar    1  UNL1        0.1370
      2 N         140.5577  138.7811  163.4469 N.ar    1  UNL1       -0.2295
      3 C         139.6146  138.4936  164.5774 C.ar    1  UNL1        0.0984
      4 C         138.8359  137.2662  164.9473 C.ar    1  UNL1        0.0206
      5 C         137.9547  137.2746  166.1612 C.ar    1  UNL1        0.0016
      6 C         137.8523  138.5105  167.0051 C.ar    1  UNL1        0.0016
      7 C         138.6311  139.7379  166.6351 C.ar    1  UNL1        0.0188
      8 C         139.5122  139.7295  165.4213 C.ar    1  UNL1        0.0789
      9 N         140.3920  140.7808  164.8124 N.ar    1  UNL1       -0.3095
     10 C         141.9965  140.8985  162.6777 C.3     1  UNL1        0.1371
     11 C         143.8514  142.6748  163.4189 C.3     1  UNL1        0.0873
     12 C         145.2684  142.5892  163.9034 C.3     1  UNL1        0.0199
     13 C         145.6540  141.1404  163.9545 C.3     1  UNL1        0.0188
     14 C         144.4753  140.3307  163.5015 C.3     1  UNL1        0.0726
     15 N         143.3612  141.2790  163.1705 N.3     1  UNL1       -0.2654
     16 O         143.6918  145.1121  162.5335 O.3     1  UNL1       -0.3806
     17 C         143.0629  143.9349  163.2181 C.3     1  UNL1        0.1530
     18 H         143.0509  145.8387  162.4855 H       1  UNL1        0.2105
     19 C         140.5907  142.1736  165.3324 C.3     1  UNL1        0.1339
     20 C         141.1871  142.3887  166.6917 C.ar    1  UNL1        0.0005
     21 C         142.6422  142.1089  166.9252 C.ar    1  UNL1       -0.0015
     22 C         143.2387  142.3240  168.2846 C.ar    1  UNL1        0.0111
     23 C         142.3801  142.8190  169.4106 C.ar    1  UNL1        0.0577
     24 CL        142.9765  143.0341  170.7700 Cl      1  UNL1       -0.0822
     25 C         140.9250  143.0988  169.1771 C.ar    1  UNL1        0.0111
     26 C         140.3286  142.8837  167.8177 C.ar    1  UNL1       -0.0015
@<TRIPOS>BOND
     1    16    17    1
     2    11    17    1
     3    11    12    1
     4    12    13    1
     5    13    14    1
     6    14    15    1
     7    15    10    1
     8    10     1    1
     9     1     2   ar
    10     2     3   ar
    11     3     4   ar
    12     4     5   ar
    13     5     6   ar
    14     6     7   ar
    15     7     8   ar
    16     8     9   ar
    17     9    19    1
    18    19    20    1
    19    20    21   ar
    20    21    22   ar
    21    22    23   ar
    22    23    24    1
    23    23    25   ar
    24    25    26   ar
    25    15    11    1
    26     9     1   ar
    27    26    20   ar
    28     8     3   ar
    29    16    18    1
@<TRIPOS>MOLECULE
*****
 26 29 0 0 0
SMALL
GASTEIGER

@<TRIPOS>ATOM
      1 C         139.0219  139.7763  166.8397 C.ar    1  UNL1        0.1370
      2 N         138.9114  139.4789  168.3057 N.ar    1  UNL1       -0.2295
      3 C         139.7222  140.4994  169.0481 C.ar    1  UNL1        0.0984
      4 C         139.9826  140.7035  170.5112 C.ar    1  UNL1        0.0206
      5 C         140.8547  141.8356  170.9669 C.ar    1  UNL1        0.0016
      6 C         141.4663  142.7637  169.9597 C.ar    1  UNL1        0.0016
      7 C         141.2059  142.5596  168.4966 C.ar    1  UNL1        0.0188
      8 C         140.3338  141.4275  168.0409 C.ar    1  UNL1        0.0789
      9 N         139.9010  140.9805  166.6760 N.ar    1  UNL1       -0.3095
     10 C         138.3680  139.0048  165.7318 C.3     1  UNL1        0.1371
     11 C         139.0306  138.6489  163.1668 C.3     1  UNL1        0.0873
     12 C         140.0791  137.8581  162.4420 C.3     1  UNL1        0.0199
     13 C         140.9002  137.1302  163.4647 C.3     1  UNL1        0.0188
     14 C         140.3592  137.4712  164.8216 C.3     1  UNL1        0.0726
     15 N         139.2037  138.4098  164.6375 N.3     1  UNL1       -0.2654
     16 O         137.1747  139.0093  161.3847 O.3     1  UNL1       -0.3806
     17 C         137.9914  139.5250  162.5323 C.3     1  UNL1        0.1530
     18 H         136.5545  139.6964  161.0946 H       1  UNL1        0.2105
     19 C         140.2807  141.6248  165.3757 C.3     1  UNL1        0.1339
     20 C         141.7159  141.6470  164.9405 C.ar    1  UNL1        0.0005
     21 C         142.5003  142.9239  165.0073 C.ar    1  UNL1       -0.0015
     22 C         143.9356  142.9461  164.5721 C.ar    1  UNL1        0.0111
     23 C         144.5866  141.6914  164.0701 C.ar    1  UNL1        0.0577
     24 CL        146.0219  141.7136  163.6350 Cl      1  UNL1       -0.0822
     25 C         143.8023  140.4145  164.0034 C.ar    1  UNL1        0.0111
     26 C         142.3670  140.3923  164.4386 C.ar    1  UNL1       -0.0015
@<TRIPOS>BOND
     1    16    17    1
     2    11    17    1
     3    11    12    1
     4    12    13    1
     5    13    14    1
     6    14    15    1
     7    15    10    1
     8    10     1    1
     9     1     2   ar
    10     2     3   ar
    11     3     4   ar
    12     4     5   ar
    13     5     6   ar
    14     6     7   ar
    15     7     8   ar
    16     8     9   ar
    17     9    19    1
    18    19    20    1
    19    20    21   ar
    20    21    22   ar
    21    22    23   ar
    22    23    24    1
    23    23    25   ar
    24    25    26   ar
    25    15    11    1
    26     9     1   ar
    27    26    20   ar
    28     8     3   ar
    29    16    18    1
@<TRIPOS>MOLECULE
*****
 26 29 0 0 0
SMALL
GASTEIGER

@<TRIPOS>ATOM
      1 C         139.3835  140.1616  166.7755 C.ar    1  UNL1        0.1370
      2 N         139.2931  139.6776  168.1925 N.ar    1  UNL1       -0.2295
      3 C         140.5333  140.1174  168.9125 C.ar    1  UNL1        0.0984
      4 C         140.9931  139.9273  170.3276 C.ar    1  UNL1        0.0206
      5 C         142.3097  140.4929  170.7707 C.ar    1  UNL1        0.0016
      6 C         143.1666  141.2486  169.7988 C.ar    1  UNL1        0.0016
      7 C         142.7069  141.4387  168.3838 C.ar    1  UNL1        0.0188
      8 C         141.3902  140.8731  167.9406 C.ar    1  UNL1        0.0789
      9 N         140.6796  140.9004  166.6199 N.ar    1  UNL1       -0.3095
     10 C         138.3578  139.9447  165.7027 C.3     1  UNL1        0.1371
     11 C         138.5150  139.6822  163.0472 C.3     1  UNL1        0.0873
     12 C         139.0279  138.6255  162.1143 C.3     1  UNL1        0.0199
     13 C         139.5557  137.4920  162.9431 C.3     1  UNL1        0.0188
     14 C         139.3689  137.8483  164.3882 C.3     1  UNL1        0.0726
     15 N         138.7257  139.2019  164.4526 N.3     1  UNL1       -0.2654
     16 O         136.5099  141.3337  163.0937 O.3     1  UNL1       -0.3806
     17 C         137.8994  140.9897  162.6454 C.3     1  UNL1        0.1530
     18 H         136.2661  142.2073  162.7496 H       1  UNL1        0.2105
     19 C         141.1776  141.5521  165.3641 C.3     1  UNL1        0.1339
     20 C         141.8563  140.7286  164.3100 C.ar    1  UNL1        0.0005
     21 C         142.5877  139.4760  164.6923 C.ar    1  UNL1       -0.0015
     22 C         143.2665  138.6524  163.6382 C.ar    1  UNL1        0.0111
     23 C         143.2138  139.0815  162.2018 C.ar    1  UNL1        0.0577
     24 CL        143.8925  138.2579  161.1477 Cl      1  UNL1       -0.0822
     25 C         142.4824  140.3340  161.8196 C.ar    1  UNL1        0.0111
     26 C         141.8037  141.1576  162.8736 C.ar    1  UNL1       -0.0015
@<TRIPOS>BOND
     1    16    17    1
     2    11    17    1
     3    11    12    1
     4    12    13    1
     5    13    14    1
     6    14    15    1
     7    15    10    1
     8    10     1    1
     9     1     2   ar
    10     2     3   ar
    11     3     4   ar
    12     4     5   ar
    13     5     6   ar
    14     6     7   ar
    15     7     8   ar
    16     8     9   ar
    17     9    19    1
    18    19    20    1
    19    20    21   ar
    20    21    22   ar
    21    22    23   ar
    22    23    24    1
    23    23    25   ar
    24    25    26   ar
    25    15    11    1
    26     9     1   ar
    27    26    20   ar
    28     8     3   ar
    29    16    18    1
@<TRIPOS>MOLECULE
*****
 26 29 0 0 0
SMALL
GASTEIGER

@<TRIPOS>ATOM
      1 C         142.1036  139.3257  166.4815 C.ar    1  UNL1        0.1370
      2 N         143.1126  139.5151  167.5751 N.ar    1  UNL1       -0.2295
      3 C         142.3869  139.9936  168.7976 C.ar    1  UNL1        0.0984
      4 C         142.8649  140.3463  170.1749 C.ar    1  UNL1        0.0206
      5 C         141.8854  140.8053  171.2141 C.ar    1  UNL1        0.0016
      6 C         140.4279  140.9116  170.8759 C.ar    1  UNL1        0.0016
      7 C         139.9499  140.5589  169.4986 C.ar    1  UNL1        0.0188
      8 C         140.9294  140.1000  168.4594 C.ar    1  UNL1        0.0789
      9 N         140.7543  139.6871  167.0280 N.ar    1  UNL1       -0.3095
     10 C         142.3931  138.8571  165.0863 C.3     1  UNL1        0.1371
     11 C         141.0344  139.2209  162.8132 C.3     1  UNL1        0.0873
     12 C         140.8599  140.3595  161.8525 C.3     1  UNL1        0.0199
     13 C         141.6654  141.5198  162.3575 C.3     1  UNL1        0.0188
     14 C         142.3379  141.0981  163.6304 C.3     1  UNL1        0.0726
     15 N         141.9479  139.6774  163.9120 N.3     1  UNL1       -0.2654
     16 O         141.2502  136.6319  162.8343 O.3     1  UNL1       -0.3806
     17 C         140.4059  137.8640  162.6959 C.3     1  UNL1        0.1530
     18 H         140.6925  135.8447  162.7328 H       1  UNL1        0.2105
     19 C         139.4576  139.6435  166.2753 C.3     1  UNL1        0.1339
     20 C         139.0249  140.8241  165.4575 C.ar    1  UNL1        0.0005
     21 C         139.5971  142.1818  165.7392 C.ar    1  UNL1       -0.0015
     22 C         139.1644  143.3625  164.9215 C.ar    1  UNL1        0.0111
     23 C         138.1595  143.1855  163.8220 C.ar    1  UNL1        0.0577
     24 CL        137.7268  144.3662  163.0042 Cl      1  UNL1       -0.0822
     25 C         137.5873  141.8278  163.5403 C.ar    1  UNL1        0.0111
     26 C         138.0200  140.6471  164.3580 C.ar    1  UNL1       -0.0015
@<TRIPOS>BOND
     1    16    17    1
     2    11    17    1
     3    11    12    1
     4    12    13    1
     5    13    14    1
     6    14    15    1
     7    15    10    1
     8    10     1    1
     9     1     2   ar
    10     2     3   ar
    11     3     4   ar
    12     4     5   ar
    13     5     6   ar
    14     6     7   ar
    15     7     8   ar
    16     8     9   ar
    17     9    19    1
    18    19    20    1
    19    20    21   ar
    20    21    22   ar
    21    22    23   ar
    22    23    24    1
    23    23    25   ar
    24    25    26   ar
    25    15    11    1
    26     9     1   ar
    27    26    20   ar
    28     8     3   ar
    29    16    18    1
@<TRIPOS>MOLECULE
*****
 26 29 0 0 0
SMALL
GASTEIGER

@<TRIPOS>ATOM
      1 C         141.6874  140.9202  166.5326 C.ar    1  UNL1        0.1370
      2 N         142.4239  139.6501  166.2255 N.ar    1  UNL1       -0.2295
      3 C         141.6070  138.8670  165.2409 C.ar    1  UNL1        0.0984
      4 C         141.8332  137.5397  164.5798 C.ar    1  UNL1        0.0206
      5 C         140.8179  136.9986  163.6173 C.ar    1  UNL1        0.0016
      6 C         139.5765  137.7848  163.3159 C.ar    1  UNL1        0.0016
      7 C         139.3503  139.1121  163.9770 C.ar    1  UNL1        0.0188
      8 C         140.3656  139.6532  164.9394 C.ar    1  UNL1        0.0789
      9 N         140.4153  140.9221  165.7378 N.ar    1  UNL1       -0.3095
     10 C         142.1430  141.9990  167.4700 C.3     1  UNL1        0.1371
     11 C         141.8092  141.2718  170.0205 C.3     1  UNL1        0.0873
     12 C         140.9576  141.7527  171.1578 C.3     1  UNL1        0.0199
     13 C         140.1363  142.9075  170.6659 C.3     1  UNL1        0.0188
     14 C         140.4805  143.1404  169.2245 C.3     1  UNL1        0.0726
     15 N         141.5144  142.1294  168.8256 N.3     1  UNL1       -0.2654
     16 O         143.4804  139.7964  171.3548 O.3     1  UNL1       -0.3806
     17 C         142.7845  140.1332  170.0694 C.3     1  UNL1        0.1530
     18 H         144.0721  139.0408  171.2138 H       1  UNL1        0.2105
     19 C         139.3754  142.0032  165.7408 C.3     1  UNL1        0.1339
     20 C         139.4365  143.1055  164.7255 C.ar    1  UNL1        0.0005
     21 C         140.7367  143.8017  164.4516 C.ar    1  UNL1       -0.0015
     22 C         140.7979  144.9041  163.4362 C.ar    1  UNL1        0.0111
     23 C         139.5588  145.3103  162.6946 C.ar    1  UNL1        0.0577
     24 CL        139.6200  146.4126  161.6792 Cl      1  UNL1       -0.0822
     25 C         138.2588  144.6141  162.9685 C.ar    1  UNL1        0.0111
     26 C         138.1976  143.5117  163.9838 C.ar    1  UNL1       -0.0015
@<TRIPOS>BOND
     1    16    17    1
     2    11    17    1
     3    11    12    1
     4    12    13    1
     5    13    14    1
     6    14    15    1
     7    15    10    1
     8    10     1    1
     9     1     2   ar
    10     2     3   ar
    11     3     4   ar
    12     4     5   ar
    13     5     6   ar
    14     6     7   ar
    15     7     8   ar
    16     8     9   ar
    17     9    19    1
    18    19    20    1
    19    20    21   ar
    20    21    22   ar
    21    22    23   ar
    22    23    24    1
    23    23    25   ar
    24    25    26   ar
    25    15    11    1
    26     9     1   ar
    27    26    20   ar
    28     8     3   ar
    29    16    18    1
@<TRIPOS>MOLECULE
*****
 26 29 0 0 0
SMALL
GASTEIGER

@<TRIPOS>ATOM
      1 C         140.9757  140.8970  163.4308 C.ar    1  UNL1        0.1370
      2 N         142.3355  140.8345  162.8007 N.ar    1  UNL1       -0.2295
      3 C         143.2346  140.0559  163.7148 C.ar    1  UNL1        0.0984
      4 C         144.6816  139.6741  163.6133 C.ar    1  UNL1        0.0206
      5 C         145.3244  138.8737  164.7069 C.ar    1  UNL1        0.0016
      6 C         144.5203  138.4549  165.9019 C.ar    1  UNL1        0.0016
      7 C         143.0733  138.8367  166.0033 C.ar    1  UNL1        0.0188
      8 C         142.4304  139.6372  164.9098 C.ar    1  UNL1        0.0789
      9 N         141.0343  140.1570  164.7342 N.ar    1  UNL1       -0.3095
     10 C         139.7690  141.5796  162.8580 C.3     1  UNL1        0.1371
     11 C         139.7199  144.1461  163.6036 C.3     1  UNL1        0.0873
     12 C         138.7954  144.9943  164.4257 C.3     1  UNL1        0.0199
     13 C         137.6674  144.1260  164.8988 C.3     1  UNL1        0.0188
     14 C         137.8949  142.7411  164.3691 C.3     1  UNL1        0.0726
     15 N         139.1634  142.7535  163.5686 N.3     1  UNL1       -0.2654
     16 O         141.6255  145.8949  163.3579 O.3     1  UNL1       -0.3806
     17 C         140.9798  144.6090  162.9340 C.3     1  UNL1        0.1530
     18 H         142.4244  146.0454  162.8286 H       1  UNL1        0.2105
     19 C         139.8967  139.9697  165.6938 C.3     1  UNL1        0.1339
     20 C         139.9026  140.6840  167.0127 C.ar    1  UNL1        0.0005
     21 C         140.4292  142.0856  167.1043 C.ar    1  UNL1       -0.0015
     22 C         140.4351  142.7999  168.4232 C.ar    1  UNL1        0.0111
     23 C         139.9144  142.1126  169.6507 C.ar    1  UNL1        0.0577
     24 CL        139.9203  142.8270  170.9696 Cl      1  UNL1       -0.0822
     25 C         139.3879  140.7111  169.5591 C.ar    1  UNL1        0.0111
     26 C         139.3819  139.9968  168.2402 C.ar    1  UNL1       -0.0015
@<TRIPOS>BOND
     1    16    17    1
     2    11    17    1
     3    11    12    1
     4    12    13    1
     5    13    14    1
     6    14    15    1
     7    15    10    1
     8    10     1    1
     9     1     2   ar
    10     2     3   ar
    11     3     4   ar
    12     4     5   ar
    13     5     6   ar
    14     6     7   ar
    15     7     8   ar
    16     8     9   ar
    17     9    19    1
    18    19    20    1
    19    20    21   ar
    20    21    22   ar
    21    22    23   ar
    22    23    24    1
    23    23    25   ar
    24    25    26   ar
    25    15    11    1
    26     9     1   ar
    27    26    20   ar
    28     8     3   ar
    29    16    18    1
@<TRIPOS>MOLECULE
*****
 26 29 0 0 0
SMALL
GASTEIGER

@<TRIPOS>ATOM
      1 C         142.6513  142.1145  164.6019 C.ar    1  UNL1        0.1370
      2 N         142.7660  143.6096  164.5615 N.ar    1  UNL1       -0.2295
      3 C         141.7326  144.1281  163.6060 C.ar    1  UNL1        0.0984
      4 C         141.3803  145.5181  163.1658 C.ar    1  UNL1        0.0206
      5 C         140.2745  145.7335  162.1754 C.ar    1  UNL1        0.0016
      6 C         139.5211  144.5589  161.6252 C.ar    1  UNL1        0.0016
      7 C         139.8734  143.1690  162.0654 C.ar    1  UNL1        0.0188
      8 C         140.9792  142.9536  163.0558 C.ar    1  UNL1        0.0789
      9 N         141.5470  141.7091  163.6713 N.ar    1  UNL1       -0.3095
     10 C         143.4932  141.1876  165.4279 C.3     1  UNL1        0.1371
     11 C         143.0432  139.2462  167.2093 C.3     1  UNL1        0.0873
     12 C         142.4066  139.1780  168.5658 C.3     1  UNL1        0.0199
     13 C         141.9439  140.5575  168.9306 C.3     1  UNL1        0.0188
     14 C         142.2947  141.4783  167.7994 C.3     1  UNL1        0.0726
     15 N         142.9741  140.6678  166.7357 N.3     1  UNL1       -0.2654
     16 O         144.5599  137.1373  167.1608 O.3     1  UNL1       -0.3806
     17 C         143.6437  138.0949  166.4583 C.3     1  UNL1        0.1530
     18 H         144.8576  136.4575  166.5362 H       1  UNL1        0.2105
     19 C         141.0905  140.3056  163.4033 C.3     1  UNL1        0.1339
     20 C         140.1349  139.6349  164.3449 C.ar    1  UNL1        0.0005
     21 C         139.7967  138.1848  164.1636 C.ar    1  UNL1       -0.0015
     22 C         138.8410  137.5140  165.1053 C.ar    1  UNL1        0.0111
     23 C         138.2235  138.2934  166.2283 C.ar    1  UNL1        0.0577
     24 CL        137.2678  137.6227  167.1700 Cl      1  UNL1       -0.0822
     25 C         138.5616  139.7435  166.4096 C.ar    1  UNL1        0.0111
     26 C         139.5173  140.4143  165.4680 C.ar    1  UNL1       -0.0015
@<TRIPOS>BOND
     1    16    17    1
     2    11    17    1
     3    11    12    1
     4    12    13    1
     5    13    14    1
     6    14    15    1
     7    15    10    1
     8    10     1    1
     9     1     2   ar
    10     2     3   ar
    11     3     4   ar
    12     4     5   ar
    13     5     6   ar
    14     6     7   ar
    15     7     8   ar
    16     8     9   ar
    17     9    19    1
    18    19    20    1
    19    20    21   ar
    20    21    22   ar
    21    22    23   ar
    22    23    24    1
    23    23    25   ar
    24    25    26   ar
    25    15    11    1
    26     9     1   ar
    27    26    20   ar
    28     8     3   ar
    29    16    18    1
@<TRIPOS>MOLECULE
*****
 26 29 0 0 0
SMALL
GASTEIGER

@<TRIPOS>ATOM
      1 C         142.3209  141.6555  162.8528 C.ar    1  UNL1        0.1370
      2 N         142.3092  142.2204  161.4633 N.ar    1  UNL1       -0.2295
      3 C         141.5000  143.4833  161.4830 C.ar    1  UNL1        0.0984
      4 C         141.1448  144.4647  160.4057 C.ar    1  UNL1        0.0206
      5 C         140.3011  145.6617  160.7301 C.ar    1  UNL1        0.0016
      6 C         139.8126  145.8772  162.1318 C.ar    1  UNL1        0.0016
      7 C         140.1677  144.8958  163.2091 C.ar    1  UNL1        0.0188
      8 C         141.0114  143.6988  162.8847 C.ar    1  UNL1        0.0789
      9 N         141.5188  142.5692  163.7313 N.ar    1  UNL1       -0.3095
     10 C         143.0131  140.3978  163.2874 C.3     1  UNL1        0.1371
     11 C         141.3387  138.4422  162.5682 C.3     1  UNL1        0.0873
     12 C         140.7348  137.2554  163.2589 C.3     1  UNL1        0.0199
     13 C         141.2377  137.2360  164.6720 C.3     1  UNL1        0.0188
     14 C         142.1523  138.4109  164.8547 C.3     1  UNL1        0.0726
     15 N         142.2148  139.1563  163.5545 N.3     1  UNL1       -0.2654
     16 O         140.1914  139.9891  160.8245 O.3     1  UNL1       -0.3806
     17 C         141.1072  138.8443  161.1418 C.3     1  UNL1        0.1530
     18 H         140.1534  140.1160  159.8636 H       1  UNL1        0.2105
     19 C         141.2680  142.3856  165.1987 C.3     1  UNL1        0.1339
     20 C         140.3010  141.3401  165.6693 C.ar    1  UNL1        0.0005
     21 C         140.3715  140.8337  167.0796 C.ar    1  UNL1       -0.0015
     22 C         139.4044  139.7881  167.5503 C.ar    1  UNL1        0.0111
     23 C         138.3668  139.2489  166.6107 C.ar    1  UNL1        0.0577
     24 CL        137.3998  138.2033  167.0814 Cl      1  UNL1       -0.0822
     25 C         138.2964  139.7553  165.2006 C.ar    1  UNL1        0.0111
     26 C         139.2634  140.8009  164.7299 C.ar    1  UNL1       -0.0015
@<TRIPOS>BOND
     1    16    17    1
     2    11    17    1
     3    11    12    1
     4    12    13    1
     5    13    14    1
     6    14    15    1
     7    15    10    1
     8    10     1    1
     9     1     2   ar
    10     2     3   ar
    11     3     4   ar
    12     4     5   ar
    13     5     6   ar
    14     6     7   ar
    15     7     8   ar
    16     8     9   ar
    17     9    19    1
    18    19    20    1
    19    20    21   ar
    20    21    22   ar
    21    22    23   ar
    22    23    24    1
    23    23    25   ar
    24    25    26   ar
    25    15    11    1
    26     9     1   ar
    27    26    20   ar
    28     8     3   ar
    29    16    18    1
@<TRIPOS>MOLECULE
*****
 26 29 0 0 0
SMALL
GASTEIGER

@<TRIPOS>ATOM
      1 C         139.9562  141.7466  163.3321 C.ar    1  UNL1        0.1370
      2 N         139.7164  140.4228  162.6687 N.ar    1  UNL1       -0.2295
      3 C         139.2619  139.4534  163.7193 C.ar    1  UNL1        0.0984
      4 C         138.8801  138.0045  163.6502 C.ar    1  UNL1        0.0206
      5 C         138.4573  137.2802  164.8938 C.ar    1  UNL1        0.0016
      6 C         138.4163  138.0048  166.2065 C.ar    1  UNL1        0.0016
      7 C         138.7980  139.4537  166.2756 C.ar    1  UNL1        0.0188
      8 C         139.2209  140.1780  165.0320 C.ar    1  UNL1        0.0789
      9 N         139.6500  141.5953  164.7927 N.ar    1  UNL1       -0.3095
     10 C         140.4208  143.0013  162.6539 C.3     1  UNL1        0.1371
     11 C         143.0912  143.0070  162.7721 C.3     1  UNL1        0.0873
     12 C         144.1273  143.9521  163.3043 C.3     1  UNL1        0.0199
     13 C         143.4174  145.1388  163.8858 C.3     1  UNL1        0.0188
     14 C         141.9424  144.9270  163.7129 C.3     1  UNL1        0.0726
     15 N         141.7408  143.6095  163.0246 N.3     1  UNL1       -0.2654
     16 O         142.8850  141.4514  160.7015 O.3     1  UNL1       -0.3806
     17 C         143.3584  141.6906  162.1047 C.3     1  UNL1        0.1530
     18 H         143.1377  140.5572  160.4231 H       1  UNL1        0.2105
     19 C         139.7545  142.6722  165.8316 C.3     1  UNL1        0.1339
     20 C         140.8405  142.6149  166.8646 C.ar    1  UNL1        0.0005
     21 C         140.5147  142.8526  168.3094 C.ar    1  UNL1       -0.0015
     22 C         141.6007  142.7953  169.3425 C.ar    1  UNL1        0.0111
     23 C         143.0127  142.5005  168.9307 C.ar    1  UNL1        0.0577
     24 CL        144.0987  142.4433  169.9638 Cl      1  UNL1       -0.0822
     25 C         143.3385  142.2629  167.4860 C.ar    1  UNL1        0.0111
     26 C         142.2525  142.3201  166.4529 C.ar    1  UNL1       -0.0015
@<TRIPOS>BOND
     1    16    17    1
     2    11    17    1
     3    11    12    1
     4    12    13    1
     5    13    14    1
     6    14    15    1
     7    15    10    1
     8    10     1    1
     9     1     2   ar
    10     2     3   ar
    11     3     4   ar
    12     4     5   ar
    13     5     6   ar
    14     6     7   ar
    15     7     8   ar
    16     8     9   ar
    17     9    19    1
    18    19    20    1
    19    20    21   ar
    20    21    22   ar
    21    22    23   ar
    22    23    24    1
    23    23    25   ar
    24    25    26   ar
    25    15    11    1
    26     9     1   ar
    27    26    20   ar
    28     8     3   ar
    29    16    18    1
