@<TRIPOS>MOLECULE
*****
 24 27 0 0 0
SMALL
GASTEIGER

@<TRIPOS>ATOM
      1 N         140.0099  141.6264  164.3191 N.am    1  UNL1       -0.3011
      2 C         138.7930  142.0913  163.5753 C.2     1  UNL1        0.2653
      3 O         137.5851  142.5590  164.3315 O.2     1  UNL1       -0.2684
      4 H         140.8028  141.3194  163.8229 H       1  UNL1        0.1497
      5 C         139.9642  141.4468  166.5463 C.3     1  UNL1        0.0896
      6 N         140.0274  141.6321  167.3190 N.3     1  UNL1       -0.2740
      7 C         139.6367  140.3960  168.0737 C.3     1  UNL1        0.0591
      8 C         139.6454  140.3988  169.5737 C.3     1  UNL1        0.0161
      9 C         140.0448  141.6377  170.3190 C.3     1  UNL1        0.0028
     10 C         140.4355  142.8738  169.5644 C.3     1  UNL1        0.0161
     11 C         140.4268  142.8710  168.0644 C.3     1  UNL1        0.0591
     12 C         140.4181  142.8682  166.5645 C.3     1  UNL1        0.0356
     13 C         140.0187  141.6293  165.8191 C.3     1  UNL1        0.0746
     14 C         139.6279  140.3932  166.5737 C.3     1  UNL1        0.0356
     15 C         138.7843  142.0885  162.0753 C.ar    1  UNL1        0.1554
     16 N         138.2138  141.0130  161.1990 N.ar    1  UNL1       -0.1646
     17 N         138.4215  141.4205  159.7704 N.ar    1  UNL1       -0.2487
     18 C         138.0037  140.6381  158.5608 C.3     1  UNL1        0.1537
     19 C         139.1203  142.7478  159.7638 C.ar    1  UNL1        0.0795
     20 C         139.5814  143.6337  158.6448 C.ar    1  UNL1        0.0188
     21 C         140.2667  144.9325  158.9502 C.ar    1  UNL1        0.0015
     22 C         140.4910  145.3454  160.3747 C.ar    1  UNL1        0.0001
     23 C         140.0299  144.4594  161.4938 C.ar    1  UNL1        0.0032
     24 C         139.3445  143.1606  161.1884 C.ar    1  UNL1        0.0411
@<TRIPOS>BOND
     1     5     6    1
     2     6     7    1
     3     7     8    1
     4     8     9    1
     5     9    10    1
     6    10    11    1
     7    11    12    1
     8    12    13    1
     9    13     1    1
    10     1     2   am
    11     2     3    2
    12     2    15    1
    13    15    16   ar
    14    16    17   ar
    15    17    18    1
    16    17    19   ar
    17    19    20   ar
    18    20    21   ar
    19    21    22   ar
    20    22    23   ar
    21    23    24   ar
    22    13    14    1
    23    11     6    1
    24    24    15   ar
    25    14     7    1
    26    24    19   ar
    27     1     4    1
@<TRIPOS>MOLECULE
*****
 24 27 0 0 0
SMALL
GASTEIGER

@<TRIPOS>ATOM
      1 N         141.3311  141.6352  164.7836 N.am    1  UNL1       -0.3011
      2 C         140.7976  140.2771  164.4357 C.2     1  UNL1        0.2653
      3 O         140.4847  139.2930  165.5235 O.2     1  UNL1       -0.2684
      4 H         141.5365  142.2812  164.0696 H       1  UNL1        0.1497
      5 C         141.8405  142.1279  166.9031 C.3     1  UNL1        0.0896
      6 N         141.7720  142.3830  167.6552 N.3     1  UNL1       -0.2740
      7 C         143.1091  142.1503  168.2940 C.3     1  UNL1        0.0591
      8 C         143.3296  142.5242  169.7299 C.3     1  UNL1        0.0161
      9 C         142.2130  143.1308  170.5269 C.3     1  UNL1        0.0028
     10 C         140.8760  143.3634  169.8881 C.3     1  UNL1        0.0161
     11 C         140.6554  142.9896  168.4523 C.3     1  UNL1        0.0591
     12 C         140.4349  142.6157  167.0165 C.3     1  UNL1        0.0356
     13 C         141.5515  142.0091  166.2195 C.3     1  UNL1        0.0746
     14 C         142.8886  141.7764  166.8582 C.3     1  UNL1        0.0356
     15 C         140.5771  139.9032  162.9998 C.ar    1  UNL1        0.1554
     16 N         139.3533  140.2070  162.1876 N.ar    1  UNL1       -0.1646
     17 N         139.5616  139.6514  160.8099 N.ar    1  UNL1       -0.2487
     18 C         138.5882  139.7293  159.6713 C.3     1  UNL1        0.1537
     19 C         140.9143  139.0042  160.7708 C.ar    1  UNL1        0.0795
     20 C         141.6555  138.2933  159.6776 C.ar    1  UNL1        0.0188
     21 C         143.0244  137.7380  159.9378 C.ar    1  UNL1        0.0015
     22 C         143.6520  137.8936  161.2913 C.ar    1  UNL1        0.0001
     23 C         142.9108  138.6045  162.3845 C.ar    1  UNL1        0.0032
     24 C         141.5419  139.1598  162.1242 C.ar    1  UNL1        0.0411
@<TRIPOS>BOND
     1     5     6    1
     2     6     7    1
     3     7     8    1
     4     8     9    1
     5     9    10    1
     6    10    11    1
     7    11    12    1
     8    12    13    1
     9    13     1    1
    10     1     2   am
    11     2     3    2
    12     2    15    1
    13    15    16   ar
    14    16    17   ar
    15    17    18    1
    16    17    19   ar
    17    19    20   ar
    18    20    21   ar
    19    21    22   ar
    20    22    23   ar
    21    23    24   ar
    22    13    14    1
    23    11     6    1
    24    24    15   ar
    25    14     7    1
    26    24    19   ar
    27     1     4    1
@<TRIPOS>MOLECULE
*****
 24 27 0 0 0
SMALL
GASTEIGER

@<TRIPOS>ATOM
      1 N         141.6227  142.9182  163.5525 N.am    1  UNL1       -0.3011
      2 C         141.7390  144.2757  162.9249 C.2     1  UNL1        0.2653
      3 O         141.9142  145.4889  163.7893 O.2     1  UNL1       -0.2684
      4 H         141.5077  142.1218  162.9851 H       1  UNL1        0.1497
      5 C         141.8989  142.6663  165.7558 C.3     1  UNL1        0.0896
      6 N         141.7404  142.6300  166.5362 N.3     1  UNL1       -0.2740
      7 C         143.0412  142.3022  167.2073 C.3     1  UNL1        0.0591
      8 C         143.1001  142.1581  168.6992 C.3     1  UNL1        0.0161
      9 C         141.8581  142.3418  169.5200 C.3     1  UNL1        0.0028
     10 C         140.5573  142.6696  168.8489 C.3     1  UNL1        0.0161
     11 C         140.4984  142.8137  167.3571 C.3     1  UNL1        0.0591
     12 C         140.4396  142.9578  165.8652 C.3     1  UNL1        0.0356
     13 C         141.6815  142.7741  165.0444 C.3     1  UNL1        0.0746
     14 C         142.9824  142.4463  165.7154 C.3     1  UNL1        0.0356
     15 C         141.6802  144.4198  161.4330 C.ar    1  UNL1        0.1554
     16 N         140.7187  145.2797  160.6675 N.ar    1  UNL1       -0.1646
     17 N         141.0169  145.1206  159.2061 N.ar    1  UNL1       -0.2487
     18 C         140.2958  145.8004  158.0800 C.3     1  UNL1        0.1537
     19 C         142.1626  144.1623  159.0683 C.ar    1  UNL1        0.0795
     20 C         142.8855  143.6282  157.8675 C.ar    1  UNL1        0.0188
     21 C         144.0185  142.6610  158.0430 C.ar    1  UNL1        0.0015
     22 C         144.4285  142.2278  159.4193 C.ar    1  UNL1        0.0001
     23 C         143.7055  142.7619  160.6202 C.ar    1  UNL1        0.0032
     24 C         142.5726  143.7292  160.4447 C.ar    1  UNL1        0.0411
@<TRIPOS>BOND
     1     5     6    1
     2     6     7    1
     3     7     8    1
     4     8     9    1
     5     9    10    1
     6    10    11    1
     7    11    12    1
     8    12    13    1
     9    13     1    1
    10     1     2   am
    11     2     3    2
    12     2    15    1
    13    15    16   ar
    14    16    17   ar
    15    17    18    1
    16    17    19   ar
    17    19    20   ar
    18    20    21   ar
    19    21    22   ar
    20    22    23   ar
    21    23    24   ar
    22    13    14    1
    23    11     6    1
    24    24    15   ar
    25    14     7    1
    26    24    19   ar
    27     1     4    1
@<TRIPOS>MOLECULE
*****
 24 27 0 0 0
SMALL
GASTEIGER

@<TRIPOS>ATOM
      1 N         141.4735  145.2640  160.0032 N.am    1  UNL1       -0.3011
      2 C         140.6677  144.7786  158.8347 C.2     1  UNL1        0.2653
      3 O         139.4530  143.9288  159.0627 O.2     1  UNL1       -0.2684
      4 H         142.2708  145.8218  159.8536 H       1  UNL1        0.1497
      5 C         141.0142  144.5995  162.0869 C.3     1  UNL1        0.0896
      6 N         140.6555  144.5350  162.7958 N.3     1  UNL1       -0.2740
      7 C         141.4464  143.5215  163.5686 C.3     1  UNL1        0.0591
      8 C         141.0374  143.1569  164.9650 C.3     1  UNL1        0.0161
      9 C         139.8374  143.8058  165.5885 C.3     1  UNL1        0.0028
     10 C         139.0465  144.8193  164.8157 C.3     1  UNL1        0.0161
     11 C         139.4554  145.1839  163.4194 C.3     1  UNL1        0.0591
     12 C         139.8645  145.5484  162.0231 C.3     1  UNL1        0.0356
     13 C         141.0645  144.8995  161.3995 C.3     1  UNL1        0.0746
     14 C         141.8555  143.8860  162.1722 C.3     1  UNL1        0.0356
     15 C         141.0768  145.1432  157.4383 C.ar    1  UNL1        0.1554
     16 N         142.2059  144.5323  156.6625 N.ar    1  UNL1       -0.1646
     17 N         142.2554  145.1942  155.3174 N.ar    1  UNL1       -0.2487
     18 C         143.2320  144.8897  154.2203 C.3     1  UNL1        0.1537
     19 C         141.1569  146.2141  155.2618 C.ar    1  UNL1        0.0795
     20 C         140.7259  147.1675  154.1870 C.ar    1  UNL1        0.0188
     21 C         139.5663  148.0892  154.4230 C.ar    1  UNL1        0.0015
     22 C         138.8379  148.0577  155.7339 C.ar    1  UNL1        0.0001
     23 C         139.2689  147.1044  156.8087 C.ar    1  UNL1        0.0032
     24 C         140.4285  146.1826  156.5727 C.ar    1  UNL1        0.0411
@<TRIPOS>BOND
     1     5     6    1
     2     6     7    1
     3     7     8    1
     4     8     9    1
     5     9    10    1
     6    10    11    1
     7    11    12    1
     8    12    13    1
     9    13     1    1
    10     1     2   am
    11     2     3    2
    12     2    15    1
    13    15    16   ar
    14    16    17   ar
    15    17    18    1
    16    17    19   ar
    17    19    20   ar
    18    20    21   ar
    19    21    22   ar
    20    22    23   ar
    21    23    24   ar
    22    13    14    1
    23    11     6    1
    24    24    15   ar
    25    14     7    1
    26    24    19   ar
    27     1     4    1
@<TRIPOS>MOLECULE
*****
 24 27 0 0 0
SMALL
GASTEIGER

@<TRIPOS>ATOM
      1 N         141.0216  139.8792  164.6830 N.am    1  UNL1       -0.3011
      2 C         140.9339  138.5757  163.9458 C.2     1  UNL1        0.2653
      3 O         140.7400  137.2966  164.7047 O.2     1  UNL1       -0.2684
      4 H         141.1488  140.7189  164.1849 H       1  UNL1        0.1497
      5 C         141.0510  139.8706  166.9176 C.3     1  UNL1        0.0896
      6 N         140.8090  139.9276  167.6750 N.3     1  UNL1       -0.2740
      7 C         142.0163  139.6400  168.5174 C.3     1  UNL1        0.0591
      8 C         141.9100  139.6642  170.0135 C.3     1  UNL1        0.0161
      9 C         140.5964  139.9759  170.6671 C.3     1  UNL1        0.0028
     10 C         139.3891  140.2634  169.8247 C.3     1  UNL1        0.0161
     11 C         139.4953  140.2393  168.3287 C.3     1  UNL1        0.0591
     12 C         139.6016  140.2151  166.8326 C.3     1  UNL1        0.0356
     13 C         140.9152  139.9034  166.1790 C.3     1  UNL1        0.0746
     14 C         142.1226  139.6159  167.0214 C.3     1  UNL1        0.0356
     15 C         141.0403  138.5516  162.4498 C.ar    1  UNL1        0.1554
     16 N         142.1833  137.9917  161.6560 N.ar    1  UNL1       -0.1646
     17 N         141.8716  138.1772  160.2006 N.ar    1  UNL1       -0.2487
     18 C         142.7427  137.7612  159.0524 C.3     1  UNL1        0.1537
     19 C         140.5360  138.8516  160.0947 C.ar    1  UNL1        0.0795
     20 C         139.7213  139.2850  158.9122 C.ar    1  UNL1        0.0188
     21 C         138.3928  139.9497  159.1198 C.ar    1  UNL1        0.0015
     22 C         137.8790  140.1811  160.5099 C.ar    1  UNL1        0.0001
     23 C         138.6936  139.7477  161.6924 C.ar    1  UNL1        0.0032
     24 C         140.0222  139.0830  161.4849 C.ar    1  UNL1        0.0411
@<TRIPOS>BOND
     1     5     6    1
     2     6     7    1
     3     7     8    1
     4     8     9    1
     5     9    10    1
     6    10    11    1
     7    11    12    1
     8    12    13    1
     9    13     1    1
    10     1     2   am
    11     2     3    2
    12     2    15    1
    13    15    16   ar
    14    16    17   ar
    15    17    18    1
    16    17    19   ar
    17    19    20   ar
    18    20    21   ar
    19    21    22   ar
    20    22    23   ar
    21    23    24   ar
    22    13    14    1
    23    11     6    1
    24    24    15   ar
    25    14     7    1
    26    24    19   ar
    27     1     4    1
@<TRIPOS>MOLECULE
*****
 24 27 0 0 0
SMALL
GASTEIGER

@<TRIPOS>ATOM
      1 N         140.9628  140.7991  164.8345 N.am    1  UNL1       -0.3011
      2 C         142.3057  140.2211  164.4987 C.2     1  UNL1        0.2653
      3 O         143.3234  140.0111  165.5803 O.2     1  UNL1       -0.2684
      4 H         140.2947  140.9370  164.1246 H       1  UNL1        0.1497
      5 C         140.4097  141.1681  166.9681 C.3     1  UNL1        0.0896
      6 N         140.3128  141.5348  167.6692 N.3     1  UNL1       -0.2740
      7 C         139.6744  140.5268  168.5782 C.3     1  UNL1        0.0591
      8 C         139.3494  140.8946  169.9957 C.3     1  UNL1        0.0161
      9 C         139.6628  142.2705  170.5041 C.3     1  UNL1        0.0028
     10 C         140.3011  143.2786  169.5951 C.3     1  UNL1        0.0161
     11 C         140.6261  142.9109  168.1777 C.3     1  UNL1        0.0591
     12 C         140.9511  142.5430  166.7603 C.3     1  UNL1        0.0356
     13 C         140.6378  141.1670  166.2519 C.3     1  UNL1        0.0746
     14 C         139.9994  140.1589  167.1608 C.3     1  UNL1        0.0356
     15 C         142.6307  139.8532  163.0813 C.ar    1  UNL1        0.1554
     16 N         142.5360  138.4811  162.4826 N.ar    1  UNL1       -0.1646
     17 N         142.9542  138.5728  161.0450 N.ar    1  UNL1       -0.2487
     18 C         143.0096  137.4354  160.0687 C.3     1  UNL1        0.1537
     19 C         143.3073  140.0016  160.7552 C.ar    1  UNL1        0.0795
     20 C         143.7851  140.6842  159.5079 C.ar    1  UNL1        0.0188
     21 C         144.0629  142.1582  159.5191 C.ar    1  UNL1        0.0015
     22 C         143.8629  142.9495  160.7776 C.ar    1  UNL1        0.0001
     23 C         143.3852  142.2669  162.0249 C.ar    1  UNL1        0.0032
     24 C         143.1074  140.7929  162.0137 C.ar    1  UNL1        0.0411
@<TRIPOS>BOND
     1     5     6    1
     2     6     7    1
     3     7     8    1
     4     8     9    1
     5     9    10    1
     6    10    11    1
     7    11    12    1
     8    12    13    1
     9    13     1    1
    10     1     2   am
    11     2     3    2
    12     2    15    1
    13    15    16   ar
    14    16    17   ar
    15    17    18    1
    16    17    19   ar
    17    19    20   ar
    18    20    21   ar
    19    21    22   ar
    20    22    23   ar
    21    23    24   ar
    22    13    14    1
    23    11     6    1
    24    24    15   ar
    25    14     7    1
    26    24    19   ar
    27     1     4    1
@<TRIPOS>MOLECULE
*****
 24 27 0 0 0
SMALL
GASTEIGER

@<TRIPOS>ATOM
      1 N         140.8220  145.6768  160.2953 N.am    1  UNL1       -0.3011
      2 C         140.2413  144.9481  159.1197 C.2     1  UNL1        0.2653
      3 O         139.4157  143.7146  159.3352 O.2     1  UNL1       -0.2684
      4 H         141.3640  146.4864  160.1539 H       1  UNL1        0.1497
      5 C         140.6299  144.8386  162.3581 C.3     1  UNL1        0.0896
      6 N         140.3322  144.6667  163.0773 N.3     1  UNL1       -0.2740
      7 C         141.3641  143.8185  163.7598 C.3     1  UNL1        0.0591
      8 C         141.1192  143.3134  165.1509 C.3     1  UNL1        0.0161
      9 C         139.8423  143.6565  165.8594 C.3     1  UNL1        0.0028
     10 C         138.8105  144.5046  165.1768 C.3     1  UNL1        0.0161
     11 C         139.0553  145.0097  163.7859 C.3     1  UNL1        0.0591
     12 C         139.3002  145.5148  162.3948 C.3     1  UNL1        0.0356
     13 C         140.5771  145.1717  161.6864 C.3     1  UNL1        0.0746
     14 C         141.6090  144.3236  162.3688 C.3     1  UNL1        0.0356
     15 C         140.4863  145.4532  157.7287 C.ar    1  UNL1        0.1554
     16 N         139.8070  146.6248  157.0837 N.ar    1  UNL1       -0.1646
     17 N         140.3545  146.7709  155.6949 N.ar    1  UNL1       -0.2487
     18 C         139.9546  147.8151  154.6949 C.3     1  UNL1        0.1537
     19 C         141.3720  145.6897  155.4815 C.ar    1  UNL1        0.0795
     20 C         142.2349  145.3415  154.3050 C.ar    1  UNL1        0.0188
     21 C         143.1792  144.1789  154.3855 C.ar    1  UNL1        0.0015
     22 C         143.2607  143.3645  155.6425 C.ar    1  UNL1        0.0001
     23 C         142.3978  143.7127  156.8190 C.ar    1  UNL1        0.0032
     24 C         141.4535  144.8753  156.7385 C.ar    1  UNL1        0.0411
@<TRIPOS>BOND
     1     5     6    1
     2     6     7    1
     3     7     8    1
     4     8     9    1
     5     9    10    1
     6    10    11    1
     7    11    12    1
     8    12    13    1
     9    13     1    1
    10     1     2   am
    11     2     3    2
    12     2    15    1
    13    15    16   ar
    14    16    17   ar
    15    17    18    1
    16    17    19   ar
    17    19    20   ar
    18    20    21   ar
    19    21    22   ar
    20    22    23   ar
    21    23    24   ar
    22    13    14    1
    23    11     6    1
    24    24    15   ar
    25    14     7    1
    26    24    19   ar
    27     1     4    1
@<TRIPOS>MOLECULE
*****
 24 27 0 0 0
SMALL
GASTEIGER

@<TRIPOS>ATOM
      1 N         141.6067  142.1939  165.2511 N.am    1  UNL1       -0.3011
      2 C         142.6921  142.9885  164.5871 C.2     1  UNL1        0.2653
      3 O         143.8340  143.5232  165.3994 O.2     1  UNL1       -0.2684
      4 H         140.8571  141.8429  164.7180 H       1  UNL1        0.1497
      5 C         141.8256  141.6732  167.4134 C.3     1  UNL1        0.0896
      6 N         141.7201  141.6744  168.2035 N.3     1  UNL1       -0.2740
      7 C         142.6552  140.6349  168.7468 C.3     1  UNL1        0.0591
      8 C         142.7120  140.3751  170.2230 C.3     1  UNL1        0.0161
      9 C         141.8336  141.1548  171.1560 C.3     1  UNL1        0.0028
     10 C         140.8986  142.1943  170.6128 C.3     1  UNL1        0.0161
     11 C         140.8418  142.4541  169.1366 C.3     1  UNL1        0.0591
     12 C         140.7850  142.7138  167.6604 C.3     1  UNL1        0.0356
     13 C         141.6634  141.9341  166.7274 C.3     1  UNL1        0.0746
     14 C         142.5985  140.8947  167.2705 C.3     1  UNL1        0.0356
     15 C         142.6353  143.2482  163.1109 C.ar    1  UNL1        0.1554
     16 N         143.4973  142.6006  162.0679 N.ar    1  UNL1       -0.1646
     17 N         143.1013  143.1534  160.7309 N.ar    1  UNL1       -0.2487
     18 C         143.7059  142.7821  159.4093 C.3     1  UNL1        0.1537
     19 C         141.9947  144.1426  160.9475 C.ar    1  UNL1        0.0795
     20 C         141.2121  144.9975  159.9954 C.ar    1  UNL1        0.0188
     21 C         140.1415  145.9111  160.5142 C.ar    1  UNL1        0.0015
     22 C         139.8535  145.9697  161.9851 C.ar    1  UNL1        0.0001
     23 C         140.6361  145.1148  162.9372 C.ar    1  UNL1        0.0032
     24 C         141.7067  144.2012  162.4184 C.ar    1  UNL1        0.0411
@<TRIPOS>BOND
     1     5     6    1
     2     6     7    1
     3     7     8    1
     4     8     9    1
     5     9    10    1
     6    10    11    1
     7    11    12    1
     8    12    13    1
     9    13     1    1
    10     1     2   am
    11     2     3    2
    12     2    15    1
    13    15    16   ar
    14    16    17   ar
    15    17    18    1
    16    17    19   ar
    17    19    20   ar
    18    20    21   ar
    19    21    22   ar
    20    22    23   ar
    21    23    24   ar
    22    13    14    1
    23    11     6    1
    24    24    15   ar
    25    14     7    1
    26    24    19   ar
    27     1     4    1
@<TRIPOS>MOLECULE
*****
 24 27 0 0 0
SMALL
GASTEIGER

@<TRIPOS>ATOM
      1 N         141.6522  141.3652  164.8680 N.am    1  UNL1       -0.3011
      2 C         141.4366  139.9060  164.5948 C.2     1  UNL1        0.2653
      3 O         141.2608  138.9476  165.7351 O.2     1  UNL1       -0.2684
      4 H         141.7676  141.9943  164.1196 H       1  UNL1        0.1497
      5 C         141.8957  142.0531  166.9804 C.3     1  UNL1        0.0896
      6 N         141.7318  142.3661  167.6949 N.3     1  UNL1       -0.2740
      7 C         142.9932  142.2464  168.4977 C.3     1  UNL1        0.0591
      8 C         143.0331  142.7469  169.9113 C.3     1  UNL1        0.0161
      9 C         141.8115  143.3670  170.5220 C.3     1  UNL1        0.0028
     10 C         140.5501  143.4868  169.7192 C.3     1  UNL1        0.0161
     11 C         140.5102  142.9863  168.3057 C.3     1  UNL1        0.0591
     12 C         140.4704  142.4858  166.8922 C.3     1  UNL1        0.0356
     13 C         141.6920  141.8657  166.2815 C.3     1  UNL1        0.0746
     14 C         142.9534  141.7459  167.0842 C.3     1  UNL1        0.0356
     15 C         141.3968  139.4056  163.1813 C.ar    1  UNL1        0.1554
     16 N         142.4894  138.6530  162.4814 N.ar    1  UNL1       -0.1646
     17 N         142.0252  138.3521  161.0871 N.ar    1  UNL1       -0.2487
     18 C         142.8038  137.6142  160.0386 C.3     1  UNL1        0.1537
     19 C         140.6458  138.9187  160.9253 C.ar    1  UNL1        0.0795
     20 C         139.6933  138.9259  159.7667 C.ar    1  UNL1        0.0188
     21 C         138.3523  139.5842  159.9023 C.ar    1  UNL1        0.0015
     22 C         137.9639  140.2352  161.1967 C.ar    1  UNL1        0.0001
     23 C         138.9164  140.2281  162.3553 C.ar    1  UNL1        0.0032
     24 C         140.2574  139.5698  162.2196 C.ar    1  UNL1        0.0411
@<TRIPOS>BOND
     1     5     6    1
     2     6     7    1
     3     7     8    1
     4     8     9    1
     5     9    10    1
     6    10    11    1
     7    11    12    1
     8    12    13    1
     9    13     1    1
    10     1     2   am
    11     2     3    2
    12     2    15    1
    13    15    16   ar
    14    16    17   ar
    15    17    18    1
    16    17    19   ar
    17    19    20   ar
    18    20    21   ar
    19    21    22   ar
    20    22    23   ar
    21    23    24   ar
    22    13    14    1
    23    11     6    1
    24    24    15   ar
    25    14     7    1
    26    24    19   ar
    27     1     4    1
