@<TRIPOS>MOLECULE
*****
 30 33 0 0 0
SMALL
GASTEIGER

@<TRIPOS>ATOM
      1 C         143.4616  142.2381  165.2596 C.ar    1  UNL1        0.0040
      2 C         144.0078  143.4267  164.5256 C.ar    1  UNL1        0.0208
      3 C         144.8553  143.2293  163.3039 C.ar    1  UNL1        0.1003
      4 N         145.1566  141.8431  162.8161 N.ar    1  UNL1       -0.2294
      5 C         144.6103  140.6545  163.5501 C.ar    1  UNL1        0.1288
      6 C         143.7628  140.8520  164.7719 C.ar    1  UNL1        0.0341
      7 C         140.5255  142.7851  164.9762 C.3     1  UNL1        0.0310
      8 C         141.1460  142.7091  166.3397 C.ar    1  UNL1       -0.0212
      9 C         140.2986  142.9066  167.5615 C.ar    1  UNL1        0.0060
     10 C         140.9191  142.8306  168.9250 C.ar    1  UNL1        0.0681
     11 C         142.3871  142.5571  169.0667 C.ar    1  UNL1        0.0103
     12 C         143.2346  142.3596  167.8449 C.ar    1  UNL1        0.0004
     13 C         142.6140  142.4356  166.4814 C.ar    1  UNL1       -0.0038
     14 C         140.0716  143.0281  170.1468 C.1     1  UNL1        0.1004
     15 N         139.2241  143.2256  171.3686 N.1     1  UNL1       -0.1908
     16 N         144.9116  139.2684  163.0623 N.pl3   1  UNL1       -0.3134
     17 H         145.8107  138.8872  163.1870 H       1  UNL1        0.1485
     18 C         143.8429  138.4631  162.3845 C.3     1  UNL1        0.1338
     19 C         142.4062  138.6427  162.7765 C.2     1  UNL1        0.0985
     20 N         141.3147  139.1844  161.9017 N.2     1  UNL1       -0.1537
     21 N         140.0427  139.1886  162.6965 N.2     1  UNL1       -0.1513
     22 C         140.3480  138.6496  164.0627 C.2     1  UNL1        0.1007
     23 C         141.8087  138.3122  164.1120 C.3     1  UNL1        0.1605
     24 CL        142.5430  137.7440  165.2902 Cl      1  UNL1       -0.1022
     25 C         139.3651  138.4780  165.1828 C.ar    1  UNL1        0.0169
     26 C         139.1415  139.5924  166.1616 C.ar    1  UNL1        0.0013
     27 C         138.1586  139.4208  167.2817 C.ar    1  UNL1        0.0000
     28 C         137.3994  138.1349  167.4228 C.ar    1  UNL1        0.0000
     29 C         137.6231  137.0204  166.4440 C.ar    1  UNL1        0.0000
     30 C         138.6060  137.1921  165.3239 C.ar    1  UNL1        0.0013
@<TRIPOS>BOND
     1     7     8    1
     2     8     9   ar
     3     9    10   ar
     4    10    14    1
     5    14    15    3
     6    10    11   ar
     7    11    12   ar
     8    12    13   ar
     9    13     1    1
    10     1     2   ar
    11     2     3   ar
    12     3     4   ar
    13     4     5   ar
    14     5    16    1
    15    16    18    1
    16    18    19    1
    17    19    20    2
    18    20    21    1
    19    21    22    2
    20    22    25    1
    21    25    26   ar
    22    26    27   ar
    23    27    28   ar
    24    28    29   ar
    25    29    30   ar
    26    22    23    1
    27    23    24    1
    28     5     6   ar
    29    13     8   ar
    30     6     1   ar
    31    23    19    1
    32    30    25   ar
    33    16    17    1
@<TRIPOS>MOLECULE
*****
 30 33 0 0 0
SMALL
GASTEIGER

@<TRIPOS>ATOM
      1 C         139.5421  139.0962  165.0489 C.ar    1  UNL1        0.0040
      2 C         140.4167  137.9286  164.6996 C.ar    1  UNL1        0.0208
      3 C         140.2707  137.2541  163.3678 C.ar    1  UNL1        0.1003
      4 N         139.2501  137.7471  162.3853 N.ar    1  UNL1       -0.2294
      5 C         138.3755  138.9146  162.7345 C.ar    1  UNL1        0.1288
      6 C         138.5215  139.5892  164.0664 C.ar    1  UNL1        0.0341
      7 C         141.4616  141.3791  165.3717 C.3     1  UNL1        0.0310
      8 C         140.6479  140.9121  166.5421 C.ar    1  UNL1       -0.0212
      9 C         140.7939  141.5866  167.8739 C.ar    1  UNL1        0.0060
     10 C         139.9801  141.1197  169.0443 C.ar    1  UNL1        0.0681
     11 C         139.0204  139.9783  168.8829 C.ar    1  UNL1        0.0103
     12 C         138.8744  139.3038  167.5511 C.ar    1  UNL1        0.0004
     13 C         139.6881  139.7707  166.3807 C.ar    1  UNL1       -0.0038
     14 C         140.1262  141.7942  170.3761 C.1     1  UNL1        0.1004
     15 N         140.2723  142.4687  171.7079 N.1     1  UNL1       -0.1908
     16 N         137.3549  139.4076  161.7520 N.pl3   1  UNL1       -0.3134
     17 H         136.4397  139.0452  161.7693 H       1  UNL1        0.1485
     18 C         137.7287  140.4529  160.7433 C.3     1  UNL1        0.1338
     19 C         138.4052  141.7159  161.1874 C.2     1  UNL1        0.0985
     20 N         137.7616  143.0655  161.3075 N.2     1  UNL1       -0.1537
     21 N         138.8025  144.0348  161.7837 N.2     1  UNL1       -0.1513
     22 C         140.0896  143.2842  161.9580 C.2     1  UNL1        0.1007
     23 C         139.8440  141.8511  161.5894 C.3     1  UNL1        0.1605
     24 CL        140.8590  140.7471  161.6179 Cl      1  UNL1       -0.1022
     25 C         141.3933  143.8649  162.4197 C.ar    1  UNL1        0.0169
     26 C         141.4116  144.8926  163.5121 C.ar    1  UNL1        0.0013
     27 C         142.7153  145.4733  163.9739 C.ar    1  UNL1        0.0000
     28 C         144.0006  145.0262  163.3431 C.ar    1  UNL1        0.0000
     29 C         143.9824  143.9985  162.2505 C.ar    1  UNL1        0.0000
     30 C         142.6786  143.4179  161.7889 C.ar    1  UNL1        0.0013
@<TRIPOS>BOND
     1     7     8    1
     2     8     9   ar
     3     9    10   ar
     4    10    14    1
     5    14    15    3
     6    10    11   ar
     7    11    12   ar
     8    12    13   ar
     9    13     1    1
    10     1     2   ar
    11     2     3   ar
    12     3     4   ar
    13     4     5   ar
    14     5    16    1
    15    16    18    1
    16    18    19    1
    17    19    20    2
    18    20    21    1
    19    21    22    2
    20    22    25    1
    21    25    26   ar
    22    26    27   ar
    23    27    28   ar
    24    28    29   ar
    25    29    30   ar
    26    22    23    1
    27    23    24    1
    28     5     6   ar
    29    13     8   ar
    30     6     1   ar
    31    23    19    1
    32    30    25   ar
    33    16    17    1
@<TRIPOS>MOLECULE
*****
 30 33 0 0 0
SMALL
GASTEIGER

@<TRIPOS>ATOM
      1 C         143.4268  140.8402  165.9038 C.ar    1  UNL1        0.0040
      2 C         143.5448  139.3515  165.7632 C.ar    1  UNL1        0.0208
      3 C         144.3995  138.7660  164.6785 C.ar    1  UNL1        0.1003
      4 N         145.1362  139.6692  163.7343 N.ar    1  UNL1       -0.2294
      5 C         145.0182  141.1580  163.8748 C.ar    1  UNL1        0.1288
      6 C         144.1635  141.7435  164.9596 C.ar    1  UNL1        0.0341
      7 C         140.4635  141.0904  165.5083 C.3     1  UNL1        0.0310
      8 C         141.0905  141.5508  166.7908 C.ar    1  UNL1       -0.0212
      9 C         140.2359  142.1363  167.8756 C.ar    1  UNL1        0.0060
     10 C         140.8629  142.5967  169.1582 C.ar    1  UNL1        0.0681
     11 C         142.3445  142.4716  169.3559 C.ar    1  UNL1        0.0103
     12 C         143.1991  141.8861  168.2712 C.ar    1  UNL1        0.0004
     13 C         142.5721  141.4257  166.9886 C.ar    1  UNL1       -0.0038
     14 C         140.0081  143.1822  170.2430 C.1     1  UNL1        0.1004
     15 N         139.1535  143.7676  171.3278 N.1     1  UNL1       -0.1908
     16 N         145.7548  142.0612  162.9307 N.pl3   1  UNL1       -0.3134
     17 H         146.7392  142.0587  162.9142 H       1  UNL1        0.1485
     18 C         144.9917  142.9682  162.0115 C.3     1  UNL1        0.1338
     19 C         143.8214  143.7499  162.5306 C.2     1  UNL1        0.0985
     20 N         143.8455  145.1821  162.9759 N.2     1  UNL1       -0.1537
     21 N         142.4606  145.5541  163.4161 N.2     1  UNL1       -0.1513
     22 C         141.5806  144.3517  163.2427 C.2     1  UNL1        0.1007
     23 C         142.4216  143.2367  162.6955 C.3     1  UNL1        0.1605
     24 CL        141.9463  141.8517  162.3703 Cl      1  UNL1       -0.1022
     25 C         140.1166  144.2774  163.5608 C.ar    1  UNL1        0.0169
     26 C         139.1388  143.8644  162.5010 C.ar    1  UNL1        0.0013
     27 C         137.6748  143.7901  162.8190 C.ar    1  UNL1        0.0000
     28 C         137.1886  144.1289  164.1970 C.ar    1  UNL1        0.0000
     29 C         138.1664  144.5420  165.2569 C.ar    1  UNL1        0.0000
     30 C         139.6304  144.6163  164.9387 C.ar    1  UNL1        0.0013
@<TRIPOS>BOND
     1     7     8    1
     2     8     9   ar
     3     9    10   ar
     4    10    14    1
     5    14    15    3
     6    10    11   ar
     7    11    12   ar
     8    12    13   ar
     9    13     1    1
    10     1     2   ar
    11     2     3   ar
    12     3     4   ar
    13     4     5   ar
    14     5    16    1
    15    16    18    1
    16    18    19    1
    17    19    20    2
    18    20    21    1
    19    21    22    2
    20    22    25    1
    21    25    26   ar
    22    26    27   ar
    23    27    28   ar
    24    28    29   ar
    25    29    30   ar
    26    22    23    1
    27    23    24    1
    28     5     6   ar
    29    13     8   ar
    30     6     1   ar
    31    23    19    1
    32    30    25   ar
    33    16    17    1
@<TRIPOS>MOLECULE
*****
 30 33 0 0 0
SMALL
GASTEIGER

@<TRIPOS>ATOM
      1 C         143.3204  139.6378  165.0766 C.ar    1  UNL1        0.0040
      2 C         144.6055  140.0306  164.4100 C.ar    1  UNL1        0.0208
      3 C         144.9232  139.5220  163.0351 C.ar    1  UNL1        0.1003
      4 N         143.9558  138.6206  162.3267 N.ar    1  UNL1       -0.2294
      5 C         142.6707  138.2279  162.9933 C.ar    1  UNL1        0.1288
      6 C         142.3530  138.7365  164.3682 C.ar    1  UNL1        0.0341
      7 C         143.1534  142.5902  165.5824 C.3     1  UNL1        0.0310
      8 C         142.9192  141.6226  166.7044 C.ar    1  UNL1       -0.0212
      9 C         142.6015  142.1312  168.0793 C.ar    1  UNL1        0.0060
     10 C         142.3673  141.1636  169.2013 C.ar    1  UNL1        0.0681
     11 C         142.4507  139.6874  168.9484 C.ar    1  UNL1        0.0103
     12 C         142.7684  139.1789  167.5735 C.ar    1  UNL1        0.0004
     13 C         143.0027  140.1465  166.4515 C.ar    1  UNL1       -0.0038
     14 C         142.0495  141.6722  170.5763 C.1     1  UNL1        0.1004
     15 N         141.7318  142.1808  171.9512 N.1     1  UNL1       -0.1908
     16 N         141.7034  137.3265  162.2849 N.pl3   1  UNL1       -0.3134
     17 H         141.9940  136.4379  161.9765 H       1  UNL1        0.1485
     18 C         140.2934  137.7792  162.0465 C.3     1  UNL1        0.1338
     19 C         139.6188  138.6839  163.0348 C.2     1  UNL1        0.0985
     20 N         138.6897  138.2550  164.1315 N.2     1  UNL1       -0.1537
     21 N         138.2516  139.4823  164.8743 N.2     1  UNL1       -0.1513
     22 C         138.9101  140.6698  164.2367 C.2     1  UNL1        0.1007
     23 C         139.7551  140.1763  163.0998 C.3     1  UNL1        0.1605
     24 CL        140.5897  141.0260  162.1880 Cl      1  UNL1       -0.1022
     25 C         138.7514  142.0996  164.6614 C.ar    1  UNL1        0.0169
     26 C         139.5856  142.6462  165.7818 C.ar    1  UNL1        0.0013
     27 C         139.4270  144.0761  166.2065 C.ar    1  UNL1        0.0000
     28 C         138.4341  144.9593  165.5108 C.ar    1  UNL1        0.0000
     29 C         137.5998  144.4127  164.3903 C.ar    1  UNL1        0.0000
     30 C         137.7586  142.9828  163.9657 C.ar    1  UNL1        0.0013
@<TRIPOS>BOND
     1     7     8    1
     2     8     9   ar
     3     9    10   ar
     4    10    14    1
     5    14    15    3
     6    10    11   ar
     7    11    12   ar
     8    12    13   ar
     9    13     1    1
    10     1     2   ar
    11     2     3   ar
    12     3     4   ar
    13     4     5   ar
    14     5    16    1
    15    16    18    1
    16    18    19    1
    17    19    20    2
    18    20    21    1
    19    21    22    2
    20    22    25    1
    21    25    26   ar
    22    26    27   ar
    23    27    28   ar
    24    28    29   ar
    25    29    30   ar
    26    22    23    1
    27    23    24    1
    28     5     6   ar
    29    13     8   ar
    30     6     1   ar
    31    23    19    1
    32    30    25   ar
    33    16    17    1
@<TRIPOS>MOLECULE
*****
 30 33 0 0 0
SMALL
GASTEIGER

@<TRIPOS>ATOM
      1 C         142.9791  139.5227  164.4289 C.ar    1  UNL1        0.0040
      2 C         142.6984  138.2995  163.6074 C.ar    1  UNL1        0.0208
      3 C         143.2882  138.1663  162.2347 C.ar    1  UNL1        0.1003
      4 N         144.1587  139.2565  161.6834 N.ar    1  UNL1       -0.2294
      5 C         144.4394  140.4797  162.5049 C.ar    1  UNL1        0.1288
      6 C         143.8496  140.6128  163.8777 C.ar    1  UNL1        0.0341
      7 C         140.2875  140.7981  164.7879 C.3     1  UNL1        0.0310
      8 C         141.0435  140.2935  165.9812 C.ar    1  UNL1       -0.0212
      9 C         140.4537  140.4266  167.3539 C.ar    1  UNL1        0.0060
     10 C         141.2097  139.9220  168.5471 C.ar    1  UNL1        0.0681
     11 C         142.5554  139.2843  168.3677 C.ar    1  UNL1        0.0103
     12 C         143.1452  139.1512  166.9950 C.ar    1  UNL1        0.0004
     13 C         142.3892  139.6558  165.8017 C.ar    1  UNL1       -0.0038
     14 C         140.6198  140.0551  169.9199 C.1     1  UNL1        0.1004
     15 N         140.0300  140.1882  171.2926 N.1     1  UNL1       -0.1908
     16 N         145.3099  141.5698  161.9537 N.pl3   1  UNL1       -0.3134
     17 H         146.2899  141.4832  161.9905 H       1  UNL1        0.1485
     18 C         144.6872  142.7919  161.3465 C.3     1  UNL1        0.1338
     19 C         143.6827  143.5880  162.1259 C.2     1  UNL1        0.0985
     20 N         143.9469  144.8762  162.8475 N.2     1  UNL1       -0.1537
     21 N         142.6652  145.3199  163.4881 N.2     1  UNL1       -0.1513
     22 C         141.6089  144.3059  163.1624 C.2     1  UNL1        0.1007
     23 C         142.2378  143.2355  162.3205 C.3     1  UNL1        0.1605
     24 CL        141.5435  142.0252  161.7699 Cl      1  UNL1       -0.1022
     25 C         140.1754  144.3539  163.6015 C.ar    1  UNL1        0.0169
     26 C         139.8403  144.5989  165.0429 C.ar    1  UNL1        0.0013
     27 C         138.4068  144.6469  165.4820 C.ar    1  UNL1        0.0000
     28 C         137.3084  144.4499  164.4796 C.ar    1  UNL1        0.0000
     29 C         137.6435  144.2048  163.0382 C.ar    1  UNL1        0.0000
     30 C         139.0770  144.1568  162.5992 C.ar    1  UNL1        0.0013
@<TRIPOS>BOND
     1     7     8    1
     2     8     9   ar
     3     9    10   ar
     4    10    14    1
     5    14    15    3
     6    10    11   ar
     7    11    12   ar
     8    12    13   ar
     9    13     1    1
    10     1     2   ar
    11     2     3   ar
    12     3     4   ar
    13     4     5   ar
    14     5    16    1
    15    16    18    1
    16    18    19    1
    17    19    20    2
    18    20    21    1
    19    21    22    2
    20    22    25    1
    21    25    26   ar
    22    26    27   ar
    23    27    28   ar
    24    28    29   ar
    25    29    30   ar
    26    22    23    1
    27    23    24    1
    28     5     6   ar
    29    13     8   ar
    30     6     1   ar
    31    23    19    1
    32    30    25   ar
    33    16    17    1
@<TRIPOS>MOLECULE
*****
 30 33 0 0 0
SMALL
GASTEIGER

@<TRIPOS>ATOM
      1 C         138.9106  141.1926  164.9710 C.ar    1  UNL1        0.0040
      2 C         138.2708  142.5406  164.8175 C.ar    1  UNL1        0.0208
      3 C         137.3687  142.8142  163.6508 C.ar    1  UNL1        0.1003
      4 N         137.1064  141.7397  162.6374 N.ar    1  UNL1       -0.2294
      5 C         137.7462  140.3917  162.7909 C.ar    1  UNL1        0.1288
      6 C         138.6483  140.1182  163.9578 C.ar    1  UNL1        0.0341
      7 C         141.7249  142.2315  164.9672 C.3     1  UNL1        0.0310
      8 C         141.2198  141.4385  166.1359 C.ar    1  UNL1       -0.0212
      9 C         142.1218  141.1650  167.3027 C.ar    1  UNL1        0.0060
     10 C         141.6167  140.3720  168.4715 C.ar    1  UNL1        0.0681
     11 C         140.2096  139.8525  168.4735 C.ar    1  UNL1        0.0103
     12 C         139.3075  140.1261  167.3066 C.ar    1  UNL1        0.0004
     13 C         139.8127  140.9191  166.1379 C.ar    1  UNL1       -0.0038
     14 C         142.5188  140.0985  169.6383 C.1     1  UNL1        0.1004
     15 N         143.4209  139.8250  170.8051 N.1     1  UNL1       -0.1908
     16 N         137.4839  139.3172  161.7777 N.pl3   1  UNL1       -0.3134
     17 H         136.5815  138.9336  161.6893 H       1  UNL1        0.1485
     18 C         138.5965  138.8272  160.8991 C.3     1  UNL1        0.1338
     19 C         139.9916  138.7270  161.4412 C.2     1  UNL1        0.0985
     20 N         140.6848  137.4656  161.8637 N.2     1  UNL1       -0.1537
     21 N         142.0600  137.8295  162.3395 N.2     1  UNL1       -0.1513
     22 C         142.2167  139.3158  162.2111 C.2     1  UNL1        0.1007
     23 C         140.9383  139.8704  161.6559 C.3     1  UNL1        0.1605
     24 CL        140.6563  141.3149  161.3663 Cl      1  UNL1       -0.1022
     25 C         143.4374  140.1083  162.5742 C.ar    1  UNL1        0.0169
     26 C         143.8913  141.2330  161.6916 C.ar    1  UNL1        0.0013
     27 C         145.1121  142.0254  162.0546 C.ar    1  UNL1        0.0000
     28 C         145.8788  141.6932  163.3003 C.ar    1  UNL1        0.0000
     29 C         145.4248  140.5685  164.1829 C.ar    1  UNL1        0.0000
     30 C         144.2041  139.7761  163.8198 C.ar    1  UNL1        0.0013
@<TRIPOS>BOND
     1     7     8    1
     2     8     9   ar
     3     9    10   ar
     4    10    14    1
     5    14    15    3
     6    10    11   ar
     7    11    12   ar
     8    12    13   ar
     9    13     1    1
    10     1     2   ar
    11     2     3   ar
    12     3     4   ar
    13     4     5   ar
    14     5    16    1
    15    16    18    1
    16    18    19    1
    17    19    20    2
    18    20    21    1
    19    21    22    2
    20    22    25    1
    21    25    26   ar
    22    26    27   ar
    23    27    28   ar
    24    28    29   ar
    25    29    30   ar
    26    22    23    1
    27    23    24    1
    28     5     6   ar
    29    13     8   ar
    30     6     1   ar
    31    23    19    1
    32    30    25   ar
    33    16    17    1
@<TRIPOS>MOLECULE
*****
 30 33 0 0 0
SMALL
GASTEIGER

@<TRIPOS>ATOM
      1 C         140.3923  139.6052  166.8713 C.ar    1  UNL1        0.0040
      2 C         138.9834  139.5211  167.3791 C.ar    1  UNL1        0.0208
      3 C         137.9638  138.7137  166.6319 C.ar    1  UNL1        0.1003
      4 N         138.3531  137.9902  165.3769 N.ar    1  UNL1       -0.2294
      5 C         139.7620  138.0742  164.8691 C.ar    1  UNL1        0.1288
      6 C         140.7817  138.8817  165.6163 C.ar    1  UNL1        0.0341
      7 C         141.1786  142.3228  165.8730 C.3     1  UNL1        0.0310
      8 C         141.8051  141.7714  167.1194 C.ar    1  UNL1       -0.0212
      9 C         142.8247  142.5789  167.8667 C.ar    1  UNL1        0.0060
     10 C         143.4511  142.0276  169.1131 C.ar    1  UNL1        0.0681
     11 C         143.0580  140.6688  169.6123 C.ar    1  UNL1        0.0103
     12 C         142.0384  139.8614  168.8650 C.ar    1  UNL1        0.0004
     13 C         141.4120  140.4127  167.6186 C.ar    1  UNL1       -0.0038
     14 C         144.4708  142.8351  169.8604 C.1     1  UNL1        0.1004
     15 N         145.4903  143.6426  170.6077 N.1     1  UNL1       -0.1908
     16 N         140.1513  137.3508  163.6141 N.pl3   1  UNL1       -0.3134
     17 H         140.7676  136.5843  163.6587 H       1  UNL1        0.1485
     18 C         139.6017  137.7952  162.2911 C.3     1  UNL1        0.1338
     19 C         139.0469  139.1803  162.1364 C.2     1  UNL1        0.0985
     20 N         137.6088  139.5321  161.8955 N.2     1  UNL1       -0.1537
     21 N         137.5058  141.0259  161.8057 N.2     1  UNL1       -0.1513
     22 C         138.8804  141.5972  161.9912 C.2     1  UNL1        0.1007
     23 C         139.8328  140.4565  162.1956 C.3     1  UNL1        0.1605
     24 CL        141.3114  140.5719  162.4198 Cl      1  UNL1       -0.1022
     25 C         139.2394  143.0535  161.9751 C.ar    1  UNL1        0.0169
     26 C         138.9618  143.9077  163.1765 C.ar    1  UNL1        0.0013
     27 C         139.3208  145.3641  163.1604 C.ar    1  UNL1        0.0000
     28 C         139.9575  145.9661  161.9430 C.ar    1  UNL1        0.0000
     29 C         140.2351  145.1119  160.7416 C.ar    1  UNL1        0.0000
     30 C         139.8760  143.6556  160.7577 C.ar    1  UNL1        0.0013
@<TRIPOS>BOND
     1     7     8    1
     2     8     9   ar
     3     9    10   ar
     4    10    14    1
     5    14    15    3
     6    10    11   ar
     7    11    12   ar
     8    12    13   ar
     9    13     1    1
    10     1     2   ar
    11     2     3   ar
    12     3     4   ar
    13     4     5   ar
    14     5    16    1
    15    16    18    1
    16    18    19    1
    17    19    20    2
    18    20    21    1
    19    21    22    2
    20    22    25    1
    21    25    26   ar
    22    26    27   ar
    23    27    28   ar
    24    28    29   ar
    25    29    30   ar
    26    22    23    1
    27    23    24    1
    28     5     6   ar
    29    13     8   ar
    30     6     1   ar
    31    23    19    1
    32    30    25   ar
    33    16    17    1
@<TRIPOS>MOLECULE
*****
 30 33 0 0 0
SMALL
GASTEIGER

@<TRIPOS>ATOM
      1 C         141.0201  139.3296  164.7655 C.ar    1  UNL1        0.0040
      2 C         139.8806  138.4155  164.4250 C.ar    1  UNL1        0.0208
      3 C         140.0327  137.4040  163.3278 C.ar    1  UNL1        0.1003
      4 N         141.3242  137.3067  162.5711 N.ar    1  UNL1       -0.2294
      5 C         142.4637  138.2208  162.9116 C.ar    1  UNL1        0.1288
      6 C         142.3116  139.2323  164.0088 C.ar    1  UNL1        0.0341
      7 C         139.8284  142.0182  164.1726 C.3     1  UNL1        0.0310
      8 C         140.2722  141.6854  165.5663 C.ar    1  UNL1       -0.0212
      9 C         140.1202  142.6968  166.6635 C.ar    1  UNL1        0.0060
     10 C         140.5640  142.3639  168.0571 C.ar    1  UNL1        0.0681
     11 C         141.1599  141.0197  168.3535 C.ar    1  UNL1        0.0103
     12 C         141.3119  140.0083  167.2564 C.ar    1  UNL1        0.0004
     13 C         140.8681  140.3411  165.8627 C.ar    1  UNL1       -0.0038
     14 C         140.4119  143.3754  169.1543 C.1     1  UNL1        0.1004
     15 N         140.2599  144.3869  170.2515 N.1     1  UNL1       -0.1908
     16 N         143.7551  138.1235  162.1550 N.pl3   1  UNL1       -0.3134
     17 H         144.4047  137.4183  162.3785 H       1  UNL1        0.1485
     18 C         144.0569  139.1007  161.0577 C.3     1  UNL1        0.1338
     19 C         143.9048  140.5729  161.3017 C.2     1  UNL1        0.0985
     20 N         145.0044  141.5235  161.6722 N.2     1  UNL1       -0.1537
     21 N         144.4056  142.8911  161.8176 N.2     1  UNL1       -0.1513
     22 C         142.9358  142.7857  161.5369 C.2     1  UNL1        0.1007
     23 C         142.6263  141.3530  161.2181 C.3     1  UNL1        0.1605
     24 CL        141.2755  140.7979  160.8758 Cl      1  UNL1       -0.1022
     25 C         141.9488  143.9148  161.5693 C.ar    1  UNL1        0.0169
     26 C         141.2586  144.3441  160.3087 C.ar    1  UNL1        0.0013
     27 C         140.2716  145.4732  160.3411 C.ar    1  UNL1        0.0000
     28 C         139.9749  146.1729  161.6342 C.ar    1  UNL1        0.0000
     29 C         140.6651  145.7437  162.8950 C.ar    1  UNL1        0.0000
     30 C         141.6521  144.6146  162.8624 C.ar    1  UNL1        0.0013
@<TRIPOS>BOND
     1     7     8    1
     2     8     9   ar
     3     9    10   ar
     4    10    14    1
     5    14    15    3
     6    10    11   ar
     7    11    12   ar
     8    12    13   ar
     9    13     1    1
    10     1     2   ar
    11     2     3   ar
    12     3     4   ar
    13     4     5   ar
    14     5    16    1
    15    16    18    1
    16    18    19    1
    17    19    20    2
    18    20    21    1
    19    21    22    2
    20    22    25    1
    21    25    26   ar
    22    26    27   ar
    23    27    28   ar
    24    28    29   ar
    25    29    30   ar
    26    22    23    1
    27    23    24    1
    28     5     6   ar
    29    13     8   ar
    30     6     1   ar
    31    23    19    1
    32    30    25   ar
    33    16    17    1
@<TRIPOS>MOLECULE
*****
 30 33 0 0 0
SMALL
GASTEIGER

@<TRIPOS>ATOM
      1 C         143.1363  142.2253  160.8242 C.ar    1  UNL1        0.0040
      2 C         144.3923  142.5220  161.5887 C.ar    1  UNL1        0.0208
      3 C         144.4996  143.7822  162.3950 C.ar    1  UNL1        0.1003
      4 N         143.3508  144.7458  162.4370 N.ar    1  UNL1       -0.2294
      5 C         142.0947  144.4492  161.6726 C.ar    1  UNL1        0.1288
      6 C         141.9875  143.1889  160.8662 C.ar    1  UNL1        0.0341
      7 C         142.2670  139.6726  162.1389 C.3     1  UNL1        0.0310
      8 C         142.5944  139.6887  160.6752 C.ar    1  UNL1       -0.0212
      9 C         142.4872  138.4285  159.8687 C.ar    1  UNL1        0.0060
     10 C         142.8146  138.4446  158.4050 C.ar    1  UNL1        0.0681
     11 C         143.2492  139.7209  157.7477 C.ar    1  UNL1        0.0103
     12 C         143.3564  140.9811  158.5541 C.ar    1  UNL1        0.0004
     13 C         143.0290  140.9650  160.0178 C.ar    1  UNL1       -0.0038
     14 C         142.7074  137.1843  157.5986 C.1     1  UNL1        0.1004
     15 N         142.6002  135.9241  156.7922 N.1     1  UNL1       -0.1908
     16 N         140.9459  145.4127  161.7146 N.pl3   1  UNL1       -0.3134
     17 H         140.8994  146.1518  161.0658 H       1  UNL1        0.1485
     18 C         139.8681  145.2502  162.7449 C.3     1  UNL1        0.1338
     19 C         139.1260  143.9513  162.8556 C.2     1  UNL1        0.0985
     20 N         137.8043  143.6342  162.2211 N.2     1  UNL1       -0.1537
     21 N         137.4367  142.2284  162.5936 N.2     1  UNL1       -0.1513
     22 C         138.5313  141.6768  163.4583 C.2     1  UNL1        0.1007
     23 C         139.5752  142.7416  163.6203 C.3     1  UNL1        0.1605
     24 CL        140.8455  142.6183  164.4084 Cl      1  UNL1       -0.1022
     25 C         138.5742  140.3017  164.0561 C.ar    1  UNL1        0.0169
     26 C         138.9267  139.1220  163.1993 C.ar    1  UNL1        0.0013
     27 C         138.9697  137.7470  163.7971 C.ar    1  UNL1        0.0000
     28 C         138.6602  137.5516  165.2517 C.ar    1  UNL1        0.0000
     29 C         138.3077  138.7313  166.1086 C.ar    1  UNL1        0.0000
     30 C         138.2647  140.1063  165.5107 C.ar    1  UNL1        0.0013
@<TRIPOS>BOND
     1     7     8    1
     2     8     9   ar
     3     9    10   ar
     4    10    14    1
     5    14    15    3
     6    10    11   ar
     7    11    12   ar
     8    12    13   ar
     9    13     1    1
    10     1     2   ar
    11     2     3   ar
    12     3     4   ar
    13     4     5   ar
    14     5    16    1
    15    16    18    1
    16    18    19    1
    17    19    20    2
    18    20    21    1
    19    21    22    2
    20    22    25    1
    21    25    26   ar
    22    26    27   ar
    23    27    28   ar
    24    28    29   ar
    25    29    30   ar
    26    22    23    1
    27    23    24    1
    28     5     6   ar
    29    13     8   ar
    30     6     1   ar
    31    23    19    1
    32    30    25   ar
    33    16    17    1
