@<TRIPOS>MOLECULE
*****
 30 33 0 0 0
SMALL
GASTEIGER

@<TRIPOS>ATOM
      1 C         144.9227  140.1795  164.3177 C.3     1  UNL1        0.0720
      2 C         144.1298  139.6151  163.1763 C.ar    1  UNL1        0.1246
      3 N         144.4620  140.0058  161.7667 N.ar    1  UNL1       -0.2134
      4 C         143.6691  139.4414  160.6253 C.ar    1  UNL1        0.1683
      5 N         144.0012  139.8321  159.2157 N.ar    1  UNL1       -0.2217
      6 C         143.2083  139.2677  158.0744 C.ar    1  UNL1        0.1379
      7 C         142.0833  138.3125  158.3426 C.ar    1  UNL1        0.1646
      8 C         141.7512  137.9217  159.7522 C.ar    1  UNL1        0.0469
      9 C         142.5441  138.4862  160.8935 C.ar    1  UNL1        0.0950
     10 C         142.2120  138.0954  162.3032 C.ar    1  UNL1        0.2647
     11 O         141.0870  137.1402  162.5714 O.2     1  UNL1       -0.2668
     12 N         143.0048  138.6599  163.4445 N.ar    1  UNL1       -0.2839
     13 O         141.2904  137.7480  157.2012 O.3     1  UNL1       -0.4519
     14 C         141.7739  136.5212  156.4863 C.ar    1  UNL1        0.1455
     15 C         143.0488  135.8570  156.9148 C.ar    1  UNL1        0.0398
     16 C         143.5324  134.6302  156.1999 C.ar    1  UNL1        0.0328
     17 C         142.7410  134.0675  155.0566 C.ar    1  UNL1        0.1403
     18 F         143.2246  132.8407  154.3417 F       1  UNL1       -0.2042
     19 C         141.4662  134.7317  154.6281 C.ar    1  UNL1        0.0328
     20 C         140.9826  135.9585  155.3430 C.ar    1  UNL1        0.0398
     21 C         142.6727  138.2691  164.8542 C.3     1  UNL1        0.1115
     22 C         141.6723  139.0663  165.6376 C.3     1  UNL1        0.0388
     23 C         140.2092  138.7566  165.5203 C.3     1  UNL1        0.0048
     24 C         139.2088  139.5538  166.3036 C.3     1  UNL1        0.0174
     25 C         139.6714  140.6606  167.2042 C.3     1  UNL1        0.0720
     26 N         141.1344  140.9702  167.3215 N.3     1  UNL1       -0.2739
     27 C         142.1348  140.1730  166.5381 C.3     1  UNL1        0.0739
     28 C         141.5969  142.0770  168.2221 C.3     1  UNL1        0.0576
     29 C         143.0612  142.2660  168.4868 C.3     1  UNL1        0.0173
     30 C         140.5952  142.9947  168.8580 C.3     1  UNL1        0.0173
@<TRIPOS>BOND
     1     1     2    1
     2     2     3   ar
     3     3     4   ar
     4     4     5   ar
     5     5     6   ar
     6     6     7   ar
     7     7    13    1
     8    13    14    1
     9    14    15   ar
    10    15    16   ar
    11    16    17   ar
    12    17    18    1
    13    17    19   ar
    14    19    20   ar
    15     7     8   ar
    16     8     9   ar
    17     9    10   ar
    18    10    11    2
    19    10    12   ar
    20    12    21    1
    21    22    21    1
    22    22    23    1
    23    23    24    1
    24    24    25    1
    25    25    26    1
    26    26    28    1
    27    28    29    1
    28    28    30    1
    29    26    27    1
    30    12     2   ar
    31    27    22    1
    32     9     4   ar
    33    20    14   ar
@<TRIPOS>MOLECULE
*****
 30 33 0 0 0
SMALL
GASTEIGER

@<TRIPOS>ATOM
      1 C         143.5480  143.2984  161.8060 C.3     1  UNL1        0.0720
      2 C         142.6645  143.9603  160.7904 C.ar    1  UNL1        0.1246
      3 N         142.9647  143.8165  159.3278 N.ar    1  UNL1       -0.2134
      4 C         142.0813  144.4784  158.3122 C.ar    1  UNL1        0.1683
      5 N         142.3815  144.3346  156.8496 N.ar    1  UNL1       -0.2217
      6 C         141.4980  144.9965  155.8341 C.ar    1  UNL1        0.1379
      7 C         140.3143  145.8021  156.2811 C.ar    1  UNL1        0.1646
      8 C         140.0141  145.9459  157.7437 C.ar    1  UNL1        0.0469
      9 C         140.8976  145.2840  158.7592 C.ar    1  UNL1        0.0950
     10 C         140.5974  145.4278  160.2219 C.ar    1  UNL1        0.2647
     11 O         139.4137  146.2334  160.6689 O.2     1  UNL1       -0.2668
     12 N         141.4808  144.7659  161.2374 N.ar    1  UNL1       -0.2839
     13 O         139.4308  146.4640  155.2655 O.3     1  UNL1       -0.4519
     14 C         139.3728  147.9606  155.1836 C.ar    1  UNL1        0.1455
     15 C         140.1684  148.6860  154.1392 C.ar    1  UNL1        0.0398
     16 C         140.1104  150.1827  154.0573 C.ar    1  UNL1        0.0328
     17 C         139.2567  150.9539  155.0198 C.ar    1  UNL1        0.1403
     18 F         139.1987  152.4505  154.9379 F       1  UNL1       -0.2042
     19 C         138.4611  150.2285  156.0642 C.ar    1  UNL1        0.0328
     20 C         138.5191  148.7319  156.1461 C.ar    1  UNL1        0.0398
     21 C         141.1807  144.9097  162.7001 C.3     1  UNL1        0.1115
     22 C         140.0124  144.1855  163.3006 C.3     1  UNL1        0.0388
     23 C         139.1127  144.8896  164.2727 C.3     1  UNL1        0.0048
     24 C         137.9444  144.1654  164.8733 C.3     1  UNL1        0.0174
     25 C         137.6758  142.7371  164.5017 C.3     1  UNL1        0.0720
     26 N         138.5755  142.0331  163.5297 N.3     1  UNL1       -0.2739
     27 C         139.7438  142.7573  162.9292 C.3     1  UNL1        0.0739
     28 C         138.3069  140.6049  163.1583 C.3     1  UNL1        0.0576
     29 C         138.5899  139.5082  164.1417 C.3     1  UNL1        0.0173
     30 C         137.7554  140.2733  161.8033 C.3     1  UNL1        0.0173
@<TRIPOS>BOND
     1     1     2    1
     2     2     3   ar
     3     3     4   ar
     4     4     5   ar
     5     5     6   ar
     6     6     7   ar
     7     7    13    1
     8    13    14    1
     9    14    15   ar
    10    15    16   ar
    11    16    17   ar
    12    17    18    1
    13    17    19   ar
    14    19    20   ar
    15     7     8   ar
    16     8     9   ar
    17     9    10   ar
    18    10    11    2
    19    10    12   ar
    20    12    21    1
    21    22    21    1
    22    22    23    1
    23    23    24    1
    24    24    25    1
    25    25    26    1
    26    26    28    1
    27    28    29    1
    28    28    30    1
    29    26    27    1
    30    12     2   ar
    31    27    22    1
    32     9     4   ar
    33    20    14   ar
@<TRIPOS>MOLECULE
*****
 30 33 0 0 0
SMALL
GASTEIGER

@<TRIPOS>ATOM
      1 C         139.4688  138.4409  160.9950 C.3     1  UNL1        0.0720
      2 C         139.6415  138.8279  162.4340 C.ar    1  UNL1        0.1246
      3 N         138.5934  138.4579  163.4412 N.ar    1  UNL1       -0.2134
      4 C         138.7661  138.8449  164.8801 C.ar    1  UNL1        0.1683
      5 N         137.7179  138.4749  165.8873 N.ar    1  UNL1       -0.2217
      6 C         137.8906  138.8619  167.3261 C.ar    1  UNL1        0.1379
      7 C         139.1115  139.6190  167.7578 C.ar    1  UNL1        0.1646
      8 C         140.1597  139.9890  166.7506 C.ar    1  UNL1        0.0469
      9 C         139.9869  139.6019  165.3118 C.ar    1  UNL1        0.0950
     10 C         141.0351  139.9720  164.3045 C.ar    1  UNL1        0.2647
     11 O         142.2560  140.7290  164.7362 O.2     1  UNL1       -0.2668
     12 N         140.8624  139.5849  162.8657 N.ar    1  UNL1       -0.2839
     13 O         139.2842  140.0060  169.1967 O.3     1  UNL1       -0.4519
     14 C         140.4142  140.9058  169.6009 C.ar    1  UNL1        0.1455
     15 C         141.7397  140.3186  169.9858 C.ar    1  UNL1        0.0398
     16 C         142.8697  141.2186  170.3900 C.ar    1  UNL1        0.0328
     17 C         142.6741  142.7056  170.4094 C.ar    1  UNL1        0.1403
     18 F         143.8040  143.6055  170.8136 F       1  UNL1       -0.2042
     19 C         141.3485  143.2928  170.0245 C.ar    1  UNL1        0.0328
     20 C         140.2186  142.3929  169.6203 C.ar    1  UNL1        0.0398
     21 C         141.9106  139.9550  161.8584 C.3     1  UNL1        0.1115
     22 C         141.8880  141.3102  161.2159 C.3     1  UNL1        0.0388
     23 C         142.2683  141.4625  159.7729 C.3     1  UNL1        0.0048
     24 C         142.2458  142.8177  159.1304 C.3     1  UNL1        0.0174
     25 C         141.8429  144.0207  159.9309 C.3     1  UNL1        0.0720
     26 N         141.4627  143.8683  161.3738 N.3     1  UNL1       -0.2739
     27 C         141.4852  142.5131  162.0164 C.3     1  UNL1        0.0739
     28 C         141.0599  145.0712  162.1743 C.3     1  UNL1        0.0576
     29 C         139.9286  145.9384  161.7073 C.3     1  UNL1        0.0173
     30 C         141.7885  145.4070  163.4418 C.3     1  UNL1        0.0173
@<TRIPOS>BOND
     1     1     2    1
     2     2     3   ar
     3     3     4   ar
     4     4     5   ar
     5     5     6   ar
     6     6     7   ar
     7     7    13    1
     8    13    14    1
     9    14    15   ar
    10    15    16   ar
    11    16    17   ar
    12    17    18    1
    13    17    19   ar
    14    19    20   ar
    15     7     8   ar
    16     8     9   ar
    17     9    10   ar
    18    10    11    2
    19    10    12   ar
    20    12    21    1
    21    22    21    1
    22    22    23    1
    23    23    24    1
    24    24    25    1
    25    25    26    1
    26    26    28    1
    27    28    29    1
    28    28    30    1
    29    26    27    1
    30    12     2   ar
    31    27    22    1
    32     9     4   ar
    33    20    14   ar
@<TRIPOS>MOLECULE
*****
 30 33 0 0 0
SMALL
GASTEIGER

@<TRIPOS>ATOM
      1 C         143.8775  139.2029  164.7236 C.3     1  UNL1        0.0720
      2 C         143.9900  140.0060  163.4616 C.ar    1  UNL1        0.1246
      3 N         143.9129  139.3228  162.1285 N.ar    1  UNL1       -0.2134
      4 C         144.0254  140.1259  160.8665 C.ar    1  UNL1        0.1683
      5 N         143.9483  139.4427  159.5334 N.ar    1  UNL1       -0.2217
      6 C         144.0608  140.2458  158.2715 C.ar    1  UNL1        0.1379
      7 C         144.2506  141.7320  158.3428 C.ar    1  UNL1        0.1646
      8 C         144.3277  142.4152  159.6759 C.ar    1  UNL1        0.0469
      9 C         144.2152  141.6122  160.9378 C.ar    1  UNL1        0.0950
     10 C         144.2923  142.2953  162.2710 C.ar    1  UNL1        0.2647
     11 O         144.4820  143.7816  162.3422 O.2     1  UNL1       -0.2668
     12 N         144.1797  141.4922  163.5329 N.ar    1  UNL1       -0.2839
     13 O         144.3631  142.5351  157.0808 O.3     1  UNL1       -0.4519
     14 C         145.5122  142.3042  156.1448 C.ar    1  UNL1        0.1455
     15 C         146.9212  142.3795  156.6540 C.ar    1  UNL1        0.0398
     16 C         148.0703  142.1485  155.7180 C.ar    1  UNL1        0.0328
     17 C         147.8105  141.8422  154.2728 C.ar    1  UNL1        0.1403
     18 F         148.9597  141.6112  153.3368 F       1  UNL1       -0.2042
     19 C         146.4016  141.7669  153.7636 C.ar    1  UNL1        0.0328
     20 C         145.2525  141.9978  154.6995 C.ar    1  UNL1        0.0398
     21 C         144.2569  142.1754  164.8661 C.3     1  UNL1        0.1115
     22 C         143.0169  142.3511  165.6916 C.3     1  UNL1        0.0388
     23 C         143.0583  142.0999  167.1699 C.3     1  UNL1        0.0048
     24 C         141.8183  142.2756  167.9955 C.3     1  UNL1        0.0174
     25 C         140.5369  142.7024  167.3428 C.3     1  UNL1        0.0720
     26 N         140.4956  142.9535  165.8646 N.3     1  UNL1       -0.2739
     27 C         141.7356  142.7779  165.0390 C.3     1  UNL1        0.0739
     28 C         139.2143  143.3803  165.2119 C.3     1  UNL1        0.0576
     29 C         138.2783  142.3504  164.6523 C.3     1  UNL1        0.0173
     30 C         138.8689  144.8371  165.1189 C.3     1  UNL1        0.0173
@<TRIPOS>BOND
     1     1     2    1
     2     2     3   ar
     3     3     4   ar
     4     4     5   ar
     5     5     6   ar
     6     6     7   ar
     7     7    13    1
     8    13    14    1
     9    14    15   ar
    10    15    16   ar
    11    16    17   ar
    12    17    18    1
    13    17    19   ar
    14    19    20   ar
    15     7     8   ar
    16     8     9   ar
    17     9    10   ar
    18    10    11    2
    19    10    12   ar
    20    12    21    1
    21    22    21    1
    22    22    23    1
    23    23    24    1
    24    24    25    1
    25    25    26    1
    26    26    28    1
    27    28    29    1
    28    28    30    1
    29    26    27    1
    30    12     2   ar
    31    27    22    1
    32     9     4   ar
    33    20    14   ar
@<TRIPOS>MOLECULE
*****
 30 33 0 0 0
SMALL
GASTEIGER

@<TRIPOS>ATOM
      1 C         139.8083  137.1508  154.7433 C.3     1  UNL1        0.0720
      2 C         140.1895  137.5226  156.1457 C.ar    1  UNL1        0.1246
      3 N         139.2477  138.3287  156.9902 N.ar    1  UNL1       -0.2134
      4 C         139.6288  138.7005  158.3925 C.ar    1  UNL1        0.1683
      5 N         138.6870  139.5066  159.2370 N.ar    1  UNL1       -0.2217
      6 C         139.0682  139.8784  160.6393 C.ar    1  UNL1        0.1379
      7 C         140.3912  139.4442  161.1970 C.ar    1  UNL1        0.1646
      8 C         141.3330  138.6382  160.3525 C.ar    1  UNL1        0.0469
      9 C         140.9519  138.2663  158.9503 C.ar    1  UNL1        0.0950
     10 C         141.8937  137.4603  158.1057 C.ar    1  UNL1        0.2647
     11 O         143.2167  137.0261  158.6635 O.2     1  UNL1       -0.2668
     12 N         141.5125  137.0884  156.7034 N.ar    1  UNL1       -0.2839
     13 O         140.7724  139.8161  162.5994 O.3     1  UNL1       -0.4519
     14 C         139.8805  139.4375  163.7444 C.ar    1  UNL1        0.1455
     15 C         139.7705  138.0024  164.1668 C.ar    1  UNL1        0.0398
     16 C         138.8786  137.6238  165.3119 C.ar    1  UNL1        0.0328
     17 C         138.0967  138.6803  166.0346 C.ar    1  UNL1        0.1403
     18 F         137.2049  138.3017  167.1797 F       1  UNL1       -0.2042
     19 C         138.2067  140.1154  165.6123 C.ar    1  UNL1        0.0328
     20 C         139.0986  140.4940  164.4673 C.ar    1  UNL1        0.0398
     21 C         142.4544  136.2824  155.8588 C.3     1  UNL1        0.1115
     22 C         142.3893  134.7840  155.8843 C.3     1  UNL1        0.0388
     23 C         141.3352  134.0655  155.0951 C.3     1  UNL1        0.0048
     24 C         141.2701  132.5672  155.1205 C.3     1  UNL1        0.0174
     25 C         142.2591  131.7872  155.9353 C.3     1  UNL1        0.0720
     26 N         143.3131  132.5057  156.7245 N.3     1  UNL1       -0.2739
     27 C         143.3782  134.0041  156.6990 C.3     1  UNL1        0.0739
     28 C         144.3021  131.7258  157.5391 C.3     1  UNL1        0.0576
     29 C         144.0516  130.2772  157.8372 C.3     1  UNL1        0.0173
     30 C         145.5415  132.3945  158.0557 C.3     1  UNL1        0.0173
@<TRIPOS>BOND
     1     1     2    1
     2     2     3   ar
     3     3     4   ar
     4     4     5   ar
     5     5     6   ar
     6     6     7   ar
     7     7    13    1
     8    13    14    1
     9    14    15   ar
    10    15    16   ar
    11    16    17   ar
    12    17    18    1
    13    17    19   ar
    14    19    20   ar
    15     7     8   ar
    16     8     9   ar
    17     9    10   ar
    18    10    11    2
    19    10    12   ar
    20    12    21    1
    21    22    21    1
    22    22    23    1
    23    23    24    1
    24    24    25    1
    25    25    26    1
    26    26    28    1
    27    28    29    1
    28    28    30    1
    29    26    27    1
    30    12     2   ar
    31    27    22    1
    32     9     4   ar
    33    20    14   ar
@<TRIPOS>MOLECULE
*****
 30 33 0 0 0
SMALL
GASTEIGER

@<TRIPOS>ATOM
      1 C         139.4640  138.5976  158.2007 C.3     1  UNL1        0.0720
      2 C         140.2682  138.6008  159.4669 C.ar    1  UNL1        0.1246
      3 N         139.6408  138.1566  160.7549 N.ar    1  UNL1       -0.2134
      4 C         140.4449  138.1598  162.0212 C.ar    1  UNL1        0.1683
      5 N         139.8175  137.7156  163.3092 N.ar    1  UNL1       -0.2217
      6 C         140.6217  137.7188  164.5754 C.ar    1  UNL1        0.1379
      7 C         142.0532  138.1663  164.5536 C.ar    1  UNL1        0.1646
      8 C         142.6806  138.6105  163.2656 C.ar    1  UNL1        0.0469
      9 C         141.8765  138.6072  161.9994 C.ar    1  UNL1        0.0950
     10 C         142.5039  139.0515  160.7113 C.ar    1  UNL1        0.2647
     11 O         143.9354  139.4989  160.6895 O.2     1  UNL1       -0.2668
     12 N         141.6997  139.0483  159.4451 N.ar    1  UNL1       -0.2839
     13 O         142.8574  138.1695  165.8199 O.3     1  UNL1       -0.4519
     14 C         142.8459  139.3748  166.7126 C.ar    1  UNL1        0.1455
     15 C         142.7386  139.2062  168.1992 C.ar    1  UNL1        0.0398
     16 C         142.7271  140.4116  169.0919 C.ar    1  UNL1        0.0328
     17 C         142.8230  141.7856  168.4979 C.ar    1  UNL1        0.1403
     18 F         142.8115  142.9910  169.3906 F       1  UNL1       -0.2042
     19 C         142.9303  141.9543  167.0113 C.ar    1  UNL1        0.0328
     20 C         142.9418  140.7489  166.1186 C.ar    1  UNL1        0.0398
     21 C         142.3271  139.4925  158.1570 C.3     1  UNL1        0.1115
     22 C         142.9607  138.4845  157.2446 C.3     1  UNL1        0.0388
     23 C         143.8246  138.9415  156.1066 C.3     1  UNL1        0.0048
     24 C         144.4581  137.9335  155.1942 C.3     1  UNL1        0.0174
     25 C         144.2279  136.4685  155.4198 C.3     1  UNL1        0.0720
     26 N         143.3641  136.0116  156.5577 N.3     1  UNL1       -0.2739
     27 C         142.7305  137.0196  157.4702 C.3     1  UNL1        0.0739
     28 C         143.1338  134.5466  156.7833 C.3     1  UNL1        0.0576
     29 C         143.8596  133.8344  157.8860 C.3     1  UNL1        0.0173
     30 C         142.1777  133.7939  155.9061 C.3     1  UNL1        0.0173
@<TRIPOS>BOND
     1     1     2    1
     2     2     3   ar
     3     3     4   ar
     4     4     5   ar
     5     5     6   ar
     6     6     7   ar
     7     7    13    1
     8    13    14    1
     9    14    15   ar
    10    15    16   ar
    11    16    17   ar
    12    17    18    1
    13    17    19   ar
    14    19    20   ar
    15     7     8   ar
    16     8     9   ar
    17     9    10   ar
    18    10    11    2
    19    10    12   ar
    20    12    21    1
    21    22    21    1
    22    22    23    1
    23    23    24    1
    24    24    25    1
    25    25    26    1
    26    26    28    1
    27    28    29    1
    28    28    30    1
    29    26    27    1
    30    12     2   ar
    31    27    22    1
    32     9     4   ar
    33    20    14   ar
@<TRIPOS>MOLECULE
*****
 30 33 0 0 0
SMALL
GASTEIGER

@<TRIPOS>ATOM
      1 C         145.0393  140.4093  164.1180 C.3     1  UNL1        0.0720
      2 C         144.2319  139.7939  163.0136 C.ar    1  UNL1        0.1246
      3 N         144.5072  140.1653  161.5867 N.ar    1  UNL1       -0.2134
      4 C         143.6998  139.5499  160.4823 C.ar    1  UNL1        0.1683
      5 N         143.9751  139.9213  159.0554 N.ar    1  UNL1       -0.2217
      6 C         143.1677  139.3059  157.9511 C.ar    1  UNL1        0.1379
      7 C         142.0850  138.3192  158.2738 C.ar    1  UNL1        0.1646
      8 C         141.8097  137.9478  159.7007 C.ar    1  UNL1        0.0469
      9 C         142.6171  138.5632  160.8050 C.ar    1  UNL1        0.0950
     10 C         142.3418  138.1918  162.2320 C.ar    1  UNL1        0.2647
     11 O         141.2591  137.2051  162.5547 O.2     1  UNL1       -0.2668
     12 N         143.1492  138.8072  163.3363 N.ar    1  UNL1       -0.2839
     13 O         141.2776  137.7038  157.1694 O.3     1  UNL1       -0.4519
     14 C         141.7803  136.4779  156.4663 C.ar    1  UNL1        0.1455
     15 C         143.0884  135.8649  156.8702 C.ar    1  UNL1        0.0398
     16 C         143.5910  134.6389  156.1670 C.ar    1  UNL1        0.0328
     17 C         142.7855  134.0260  155.0601 C.ar    1  UNL1        0.1403
     18 F         143.2882  132.8001  154.3570 F       1  UNL1       -0.2042
     19 C         141.4774  134.6390  154.6562 C.ar    1  UNL1        0.0328
     20 C         140.9748  135.8649  155.3593 C.ar    1  UNL1        0.0398
     21 C         142.8739  138.4358  164.7633 C.3     1  UNL1        0.1115
     22 C         142.1187  139.3795  165.6516 C.3     1  UNL1        0.0388
     23 C         142.3653  139.3763  167.1312 C.3     1  UNL1        0.0048
     24 C         141.6101  140.3200  168.0195 C.3     1  UNL1        0.0174
     25 C         140.6083  141.2671  167.4281 C.3     1  UNL1        0.0720
     26 N         140.3617  141.2703  165.9486 N.3     1  UNL1       -0.2739
     27 C         141.1169  140.3265  165.0603 C.3     1  UNL1        0.0739
     28 C         139.3600  142.2173  165.3572 C.3     1  UNL1        0.0576
     29 C         139.5656  143.6982  165.4781 C.3     1  UNL1        0.0173
     30 C         138.1526  141.6833  164.6450 C.3     1  UNL1        0.0173
@<TRIPOS>BOND
     1     1     2    1
     2     2     3   ar
     3     3     4   ar
     4     4     5   ar
     5     5     6   ar
     6     6     7   ar
     7     7    13    1
     8    13    14    1
     9    14    15   ar
    10    15    16   ar
    11    16    17   ar
    12    17    18    1
    13    17    19   ar
    14    19    20   ar
    15     7     8   ar
    16     8     9   ar
    17     9    10   ar
    18    10    11    2
    19    10    12   ar
    20    12    21    1
    21    22    21    1
    22    22    23    1
    23    23    24    1
    24    24    25    1
    25    25    26    1
    26    26    28    1
    27    28    29    1
    28    28    30    1
    29    26    27    1
    30    12     2   ar
    31    27    22    1
    32     9     4   ar
    33    20    14   ar
@<TRIPOS>MOLECULE
*****
 30 33 0 0 0
SMALL
GASTEIGER

@<TRIPOS>ATOM
      1 C         144.5912  138.0153  155.3476 C.3     1  UNL1        0.0720
      2 C         143.3419  138.0801  156.1753 C.ar    1  UNL1        0.1246
      3 N         143.3573  138.7774  157.5033 N.ar    1  UNL1       -0.2134
      4 C         142.1080  138.8422  158.3310 C.ar    1  UNL1        0.1683
      5 N         142.1235  139.5394  159.6590 N.ar    1  UNL1       -0.2217
      6 C         140.8742  139.6042  160.4866 C.ar    1  UNL1        0.1379
      7 C         139.6094  138.9717  159.9862 C.ar    1  UNL1        0.1646
      8 C         139.5939  138.2745  158.6583 C.ar    1  UNL1        0.0469
      9 C         140.8432  138.2097  157.8307 C.ar    1  UNL1        0.0950
     10 C         140.8278  137.5124  156.5026 C.ar    1  UNL1        0.2647
     11 O         139.5631  136.8799  156.0023 O.2     1  UNL1       -0.2668
     12 N         142.0771  137.4476  155.6750 N.ar    1  UNL1       -0.2839
     13 O         138.3600  139.0365  160.8139 O.3     1  UNL1       -0.4519
     14 C         138.4491  138.9962  162.3107 C.ar    1  UNL1        0.1455
     15 C         138.1066  140.2148  163.1156 C.ar    1  UNL1        0.0398
     16 C         138.1957  140.1744  164.6124 C.ar    1  UNL1        0.0328
     17 C         138.6272  138.9154  165.3044 C.ar    1  UNL1        0.1403
     18 F         138.7162  138.8751  166.8011 F       1  UNL1       -0.2042
     19 C         138.9696  137.6968  164.4995 C.ar    1  UNL1        0.0328
     20 C         138.8806  137.7372  163.0027 C.ar    1  UNL1        0.0398
     21 C         142.0617  136.7503  154.3469 C.3     1  UNL1        0.1115
     22 C         142.3417  135.2787  154.2692 C.3     1  UNL1        0.0388
     23 C         141.7975  134.4710  153.1284 C.3     1  UNL1        0.0048
     24 C         142.0774  132.9994  153.0507 C.3     1  UNL1        0.0174
     25 C         142.9015  132.3356  154.1139 C.3     1  UNL1        0.0720
     26 N         143.4457  133.1433  155.2546 N.3     1  UNL1       -0.2739
     27 C         143.1657  134.6149  155.3323 C.3     1  UNL1        0.0739
     28 C         144.2697  132.4795  156.3177 C.3     1  UNL1        0.0576
     29 C         144.4640  133.1511  157.6448 C.3     1  UNL1        0.0173
     30 C         144.8995  131.1439  156.0538 C.3     1  UNL1        0.0173
@<TRIPOS>BOND
     1     1     2    1
     2     2     3   ar
     3     3     4   ar
     4     4     5   ar
     5     5     6   ar
     6     6     7   ar
     7     7    13    1
     8    13    14    1
     9    14    15   ar
    10    15    16   ar
    11    16    17   ar
    12    17    18    1
    13    17    19   ar
    14    19    20   ar
    15     7     8   ar
    16     8     9   ar
    17     9    10   ar
    18    10    11    2
    19    10    12   ar
    20    12    21    1
    21    22    21    1
    22    22    23    1
    23    23    24    1
    24    24    25    1
    25    25    26    1
    26    26    28    1
    27    28    29    1
    28    28    30    1
    29    26    27    1
    30    12     2   ar
    31    27    22    1
    32     9     4   ar
    33    20    14   ar
@<TRIPOS>MOLECULE
*****
 30 33 0 0 0
SMALL
GASTEIGER

@<TRIPOS>ATOM
      1 C         138.3995  144.1031  164.2315 C.3     1  UNL1        0.0720
      2 C         138.4014  143.0779  163.1364 C.ar    1  UNL1        0.1246
      3 N         138.4423  143.5133  161.7016 N.ar    1  UNL1       -0.2134
      4 C         138.4442  142.4881  160.6065 C.ar    1  UNL1        0.1683
      5 N         138.4850  142.9234  159.1717 N.ar    1  UNL1       -0.2217
      6 C         138.4870  141.8983  158.0767 C.ar    1  UNL1        0.1379
      7 C         138.4481  140.4378  158.4166 C.ar    1  UNL1        0.1646
      8 C         138.4073  140.0025  159.8514 C.ar    1  UNL1        0.0469
      9 C         138.4053  141.0276  160.9464 C.ar    1  UNL1        0.0950
     10 C         138.3645  140.5923  162.3813 C.ar    1  UNL1        0.2647
     11 O         138.3257  139.1318  162.7211 O.2     1  UNL1       -0.2668
     12 N         138.3626  141.6174  163.4763 N.ar    1  UNL1       -0.2839
     13 O         138.4501  139.4127  157.3215 O.3     1  UNL1       -0.4519
     14 C         139.6660  138.5657  157.0892 C.ar    1  UNL1        0.1455
     15 C         140.9649  138.9210  157.7500 C.ar    1  UNL1        0.0398
     16 C         142.1809  138.0739  157.5177 C.ar    1  UNL1        0.0328
     17 C         142.0980  136.8717  156.6246 C.ar    1  UNL1        0.1403
     18 F         143.3140  136.0247  156.3923 F       1  UNL1       -0.2042
     19 C         140.7992  136.5164  155.9637 C.ar    1  UNL1        0.0328
     20 C         139.5832  137.3634  156.1960 C.ar    1  UNL1        0.0398
     21 C         138.3218  141.1821  164.9112 C.3     1  UNL1        0.1115
     22 C         139.5875  140.7830  165.6101 C.3     1  UNL1        0.0388
     23 C         140.8527  140.6015  164.8249 C.3     1  UNL1        0.0048
     24 C         142.1185  140.2024  165.5238 C.3     1  UNL1        0.0174
     25 C         142.1191  139.9847  167.0080 C.3     1  UNL1        0.0720
     26 N         140.8540  140.1662  167.7932 N.3     1  UNL1       -0.2739
     27 C         139.5882  140.5653  167.0942 C.3     1  UNL1        0.0739
     28 C         140.8546  139.9485  169.2773 C.3     1  UNL1        0.0576
     29 C         139.6475  140.3137  170.0894 C.3     1  UNL1        0.0173
     30 C         142.0624  139.3657  169.9493 C.3     1  UNL1        0.0173
@<TRIPOS>BOND
     1     1     2    1
     2     2     3   ar
     3     3     4   ar
     4     4     5   ar
     5     5     6   ar
     6     6     7   ar
     7     7    13    1
     8    13    14    1
     9    14    15   ar
    10    15    16   ar
    11    16    17   ar
    12    17    18    1
    13    17    19   ar
    14    19    20   ar
    15     7     8   ar
    16     8     9   ar
    17     9    10   ar
    18    10    11    2
    19    10    12   ar
    20    12    21    1
    21    22    21    1
    22    22    23    1
    23    23    24    1
    24    24    25    1
    25    25    26    1
    26    26    28    1
    27    28    29    1
    28    28    30    1
    29    26    27    1
    30    12     2   ar
    31    27    22    1
    32     9     4   ar
    33    20    14   ar
