@<TRIPOS>MOLECULE
*****
 30 33 0 0 0
SMALL
GASTEIGER

@<TRIPOS>ATOM
      1 N         140.0231  138.3395  163.9142 N.3     1  UNL1       -0.2706
      2 C         138.7966  139.1350  164.2504 C.3     1  UNL1        0.0726
      3 C         138.7525  139.9492  165.5094 C.3     1  UNL1        0.0242
      4 C         139.9349  139.9680  166.4323 C.3     1  UNL1        0.0528
      5 C         141.1613  139.1725  166.0962 C.3     1  UNL1        0.1304
      6 O         142.3437  139.1913  167.0190 O.3     1  UNL1       -0.3827
      7 C         141.2055  138.3583  164.8371 C.3     1  UNL1        0.1020
      8 H         143.0458  138.6287  166.6565 H       1  UNL1        0.2104
      9 C         139.8907  140.7822  167.6913 C.ar    1  UNL1       -0.0093
     10 C         139.3055  140.1975  168.9425 C.ar    1  UNL1       -0.0011
     11 C         139.2613  141.0117  170.2015 C.ar    1  UNL1        0.0294
     12 C         139.8024  142.4107  170.2092 C.ar    1  UNL1        0.1410
     13 F         139.7583  143.2250  171.4683 F       1  UNL1       -0.2041
     14 C         140.3877  142.9954  168.9581 C.ar    1  UNL1        0.0407
     15 C         140.4318  142.1812  167.6991 C.ar    1  UNL1        0.0560
     16 CL        141.0171  142.7659  166.4478 Cl      1  UNL1       -0.0825
     17 C         140.0673  137.5254  162.6553 C.3     1  UNL1        0.0722
     18 O         144.6033  138.6181  160.7276 O.3     1  UNL1       -0.3785
     19 C         143.1426  138.6696  160.3907 C.3     1  UNL1        0.1498
     20 C         142.2116  138.1646  161.4528 C.3     1  UNL1        0.0368
     21 C         140.7140  138.0845  161.4227 C.3     1  UNL1        0.0191
     22 C         139.7776  138.4897  160.3232 C.3     1  UNL1        0.0062
     23 C         140.1076  139.0749  158.9821 C.3     1  UNL1        0.0277
     24 C         141.4553  139.3996  158.4092 C.ar    1  UNL1       -0.0063
     25 C         141.3400  139.9741  157.0284 C.ar    1  UNL1       -0.0014
     26 C         142.5755  140.3681  156.2745 C.ar    1  UNL1        0.0203
     27 C         143.9262  140.1877  156.9014 C.ar    1  UNL1        0.0985
     28 N         144.0415  139.6132  158.2822 N.ar    1  UNL1       -0.2461
     29 C         142.8061  139.2192  159.0361 C.ar    1  UNL1        0.0817
     30 H         144.7171  138.2502  161.6178 H       1  UNL1        0.2108
@<TRIPOS>BOND
     1    19    18    1
     2    19    20    1
     3    20    21    1
     4    21    17    1
     5    17     1    1
     6     1     2    1
     7     2     3    1
     8     3     4    1
     9     4     9    1
    10     9    10   ar
    11    10    11   ar
    12    11    12   ar
    13    12    13    1
    14    12    14   ar
    15    14    15   ar
    16    15    16    1
    17     4     5    1
    18     5     6    1
    19     5     7    1
    20    21    22    1
    21    22    23    1
    22    23    24    1
    23    24    25   ar
    24    25    26   ar
    25    26    27   ar
    26    27    28   ar
    27    28    29   ar
    28    29    19    1
    29     7     1    1
    30    29    24   ar
    31    15     9   ar
    32    18    30    1
    33     6     8    1
@<TRIPOS>MOLECULE
*****
 30 33 0 0 0
SMALL
GASTEIGER

@<TRIPOS>ATOM
      1 N         138.7809  142.7895  164.6708 N.3     1  UNL1       -0.2706
      2 C         139.8456  143.4418  165.5020 C.3     1  UNL1        0.0726
      3 C         140.5916  142.6414  166.5280 C.3     1  UNL1        0.0242
      4 C         140.2731  141.1886  166.7228 C.3     1  UNL1        0.0528
      5 C         139.2084  140.5363  165.8916 C.3     1  UNL1        0.1304
      6 O         138.8898  139.0835  166.0864 O.3     1  UNL1       -0.3827
      7 C         138.4623  141.3367  164.8656 C.3     1  UNL1        0.1020
      8 H         138.1838  138.8225  165.4747 H       1  UNL1        0.2104
      9 C         141.0192  140.3882  167.7488 C.ar    1  UNL1       -0.0093
     10 C         142.2717  139.6578  167.3646 C.ar    1  UNL1       -0.0011
     11 C         143.0178  138.8574  168.3906 C.ar    1  UNL1        0.0294
     12 C         142.5113  138.7875  169.8008 C.ar    1  UNL1        0.1410
     13 F         143.2575  137.9870  170.8269 F       1  UNL1       -0.2041
     14 C         141.2588  139.5179  170.1850 C.ar    1  UNL1        0.0407
     15 C         140.5128  140.3183  169.1590 C.ar    1  UNL1        0.0560
     16 CL        139.2602  141.0488  169.5431 Cl      1  UNL1       -0.0825
     17 C         138.0348  143.5899  163.6448 C.3     1  UNL1        0.0722
     18 O         138.1655  141.3718  159.1117 O.3     1  UNL1       -0.3785
     19 C         138.6768  142.5779  159.8423 C.3     1  UNL1        0.1498
     20 C         138.2648  142.6909  161.2802 C.3     1  UNL1        0.0368
     21 C         138.6068  143.7655  162.2693 C.3     1  UNL1        0.0191
     22 C         139.4451  144.9925  162.0649 C.3     1  UNL1        0.0062
     23 C         140.1485  145.4478  160.8207 C.3     1  UNL1        0.0277
     24 C         140.1874  144.7888  159.4738 C.ar    1  UNL1       -0.0063
     25 C         141.0102  145.5795  158.5003 C.ar    1  UNL1       -0.0014
     26 C         141.1781  145.0929  157.0915 C.ar    1  UNL1        0.0203
     27 C         140.5231  143.8157  156.6560 C.ar    1  UNL1        0.0985
     28 N         139.7002  143.0250  157.6294 N.ar    1  UNL1       -0.2461
     29 C         139.5324  143.5115  159.0383 C.ar    1  UNL1        0.0817
     30 H         137.6264  140.8341  159.7127 H       1  UNL1        0.2108
@<TRIPOS>BOND
     1    19    18    1
     2    19    20    1
     3    20    21    1
     4    21    17    1
     5    17     1    1
     6     1     2    1
     7     2     3    1
     8     3     4    1
     9     4     9    1
    10     9    10   ar
    11    10    11   ar
    12    11    12   ar
    13    12    13    1
    14    12    14   ar
    15    14    15   ar
    16    15    16    1
    17     4     5    1
    18     5     6    1
    19     5     7    1
    20    21    22    1
    21    22    23    1
    22    23    24    1
    23    24    25   ar
    24    25    26   ar
    25    26    27   ar
    26    27    28   ar
    27    28    29   ar
    28    29    19    1
    29     7     1    1
    30    29    24   ar
    31    15     9   ar
    32    18    30    1
    33     6     8    1
@<TRIPOS>MOLECULE
*****
 30 33 0 0 0
SMALL
GASTEIGER

@<TRIPOS>ATOM
      1 N         138.6732  140.3542  164.3530 N.3     1  UNL1       -0.2706
      2 C         139.5368  141.5678  164.1750 C.3     1  UNL1        0.0726
      3 C         140.3067  142.1177  165.3388 C.3     1  UNL1        0.0242
      4 C         140.2132  141.4542  166.6808 C.3     1  UNL1        0.0528
      5 C         139.3497  140.2407  166.8590 C.3     1  UNL1        0.1304
      6 O         139.2562  139.5771  168.2010 O.3     1  UNL1       -0.3827
      7 C         138.5797  139.6907  165.6950 C.3     1  UNL1        0.1020
      8 H         138.6610  138.8134  168.1432 H       1  UNL1        0.2104
      9 C         140.9832  142.0042  167.8448 C.ar    1  UNL1       -0.0093
     10 C         140.3751  143.0665  168.7117 C.ar    1  UNL1       -0.0011
     11 C         141.1451  143.6165  169.8755 C.ar    1  UNL1        0.0294
     12 C         142.5233  143.1041  170.1724 C.ar    1  UNL1        0.1410
     13 F         143.2933  143.6541  171.3364 F       1  UNL1       -0.2041
     14 C         143.1314  142.0417  169.3055 C.ar    1  UNL1        0.0407
     15 C         142.3614  141.4918  168.1417 C.ar    1  UNL1        0.0560
     16 CL        142.9695  140.4294  167.2747 Cl      1  UNL1       -0.0825
     17 C         137.9032  139.8043  163.1892 C.3     1  UNL1        0.0722
     18 O         141.8945  137.3833  161.2671 O.3     1  UNL1       -0.3785
     19 C         140.7362  138.2439  160.8579 C.3     1  UNL1        0.1498
     20 C         139.8286  138.6845  161.9679 C.3     1  UNL1        0.0368
     21 C         138.5992  139.5401  161.8869 C.3     1  UNL1        0.0191
     22 C         137.9738  140.1666  160.6759 C.3     1  UNL1        0.0062
     23 C         138.4234  140.0920  159.2469 C.3     1  UNL1        0.0277
     24 C         139.6093  139.3727  158.6757 C.ar    1  UNL1       -0.0063
     25 C         139.6974  139.5552  157.1895 C.ar    1  UNL1       -0.0014
     26 C         140.8148  138.9152  156.4202 C.ar    1  UNL1        0.0203
     27 C         141.8441  138.0927  157.1372 C.ar    1  UNL1        0.0985
     28 N         141.7560  137.9102  158.6234 N.ar    1  UNL1       -0.2461
     29 C         140.6386  138.5502  159.3927 C.ar    1  UNL1        0.0817
     30 H         141.8701  137.2432  162.2266 H       1  UNL1        0.2108
@<TRIPOS>BOND
     1    19    18    1
     2    19    20    1
     3    20    21    1
     4    21    17    1
     5    17     1    1
     6     1     2    1
     7     2     3    1
     8     3     4    1
     9     4     9    1
    10     9    10   ar
    11    10    11   ar
    12    11    12   ar
    13    12    13    1
    14    12    14   ar
    15    14    15   ar
    16    15    16    1
    17     4     5    1
    18     5     6    1
    19     5     7    1
    20    21    22    1
    21    22    23    1
    22    23    24    1
    23    24    25   ar
    24    25    26   ar
    25    26    27   ar
    26    27    28   ar
    27    28    29   ar
    28    29    19    1
    29     7     1    1
    30    29    24   ar
    31    15     9   ar
    32    18    30    1
    33     6     8    1
@<TRIPOS>MOLECULE
*****
 30 33 0 0 0
SMALL
GASTEIGER

@<TRIPOS>ATOM
      1 N         139.0169  139.8447  163.0770 N.3     1  UNL1       -0.2706
      2 C         140.0148  139.5462  161.9975 C.3     1  UNL1        0.0726
      3 C         140.1628  140.4810  160.8338 C.3     1  UNL1        0.0242
      4 C         139.3130  141.7141  160.7495 C.3     1  UNL1        0.0528
      5 C         138.3152  142.0126  161.8289 C.3     1  UNL1        0.1304
      6 O         137.4654  143.2458  161.7445 O.3     1  UNL1       -0.3827
      7 C         138.1671  141.0779  162.9927 C.3     1  UNL1        0.1020
      8 H         136.8788  143.2876  162.5160 H       1  UNL1        0.2104
      9 C         139.4611  142.6489  159.5856 C.ar    1  UNL1       -0.0093
     10 C         138.7340  142.3712  158.3034 C.ar    1  UNL1       -0.0011
     11 C         138.8821  143.3059  157.1397 C.ar    1  UNL1        0.0294
     12 C         139.7573  144.5183  157.2582 C.ar    1  UNL1        0.1410
     13 F         139.9054  145.4530  156.0943 F       1  UNL1       -0.2041
     14 C         140.4844  144.7960  158.5404 C.ar    1  UNL1        0.0407
     15 C         140.3363  143.8613  159.7041 C.ar    1  UNL1        0.0560
     16 CL        141.0634  144.1390  160.9864 Cl      1  UNL1       -0.0825
     17 C         138.8688  138.9100  164.2408 C.3     1  UNL1        0.0722
     18 O         143.4564  139.3209  166.3076 O.3     1  UNL1       -0.3785
     19 C         142.0009  139.4410  166.6498 C.3     1  UNL1        0.1498
     20 C         141.0441  139.1810  165.5242 C.3     1  UNL1        0.0368
     21 C         139.5447  139.2210  165.5432 C.3     1  UNL1        0.0191
     22 C         138.6319  139.5308  166.6925 C.3     1  UNL1        0.0062
     23 C         138.9930  139.8772  168.1065 C.3     1  UNL1        0.0277
     24 C         140.3561  139.9993  168.7207 C.ar    1  UNL1       -0.0063
     25 C         140.2721  140.3657  170.1728 C.ar    1  UNL1       -0.0014
     26 C         141.5267  140.5380  170.9766 C.ar    1  UNL1        0.0203
     27 C         142.8654  140.3438  170.3283 C.ar    1  UNL1        0.0985
     28 N         142.9494  139.9774  168.8762 N.ar    1  UNL1       -0.2461
     29 C         141.6947  139.8052  168.0724 C.ar    1  UNL1        0.0817
     30 H         143.5500  139.0838  165.3717 H       1  UNL1        0.2108
@<TRIPOS>BOND
     1    19    18    1
     2    19    20    1
     3    20    21    1
     4    21    17    1
     5    17     1    1
     6     1     2    1
     7     2     3    1
     8     3     4    1
     9     4     9    1
    10     9    10   ar
    11    10    11   ar
    12    11    12   ar
    13    12    13    1
    14    12    14   ar
    15    14    15   ar
    16    15    16    1
    17     4     5    1
    18     5     6    1
    19     5     7    1
    20    21    22    1
    21    22    23    1
    22    23    24    1
    23    24    25   ar
    24    25    26   ar
    25    26    27   ar
    26    27    28   ar
    27    28    29   ar
    28    29    19    1
    29     7     1    1
    30    29    24   ar
    31    15     9   ar
    32    18    30    1
    33     6     8    1
@<TRIPOS>MOLECULE
*****
 30 33 0 0 0
SMALL
GASTEIGER

@<TRIPOS>ATOM
      1 N         143.9554  142.1642  163.7513 N.3     1  UNL1       -0.2706
      2 C         144.2021  142.9225  165.0218 C.3     1  UNL1        0.0726
      3 C         143.5320  142.4935  166.2934 C.3     1  UNL1        0.0242
      4 C         142.6152  141.3062  166.2945 C.3     1  UNL1        0.0528
      5 C         142.3686  140.5480  165.0240 C.3     1  UNL1        0.1304
      6 O         141.4518  139.3607  165.0251 O.3     1  UNL1       -0.3827
      7 C         143.0387  140.9769  163.7524 C.3     1  UNL1        0.1020
      8 H         141.4033  138.9889  164.1305 H       1  UNL1        0.2104
      9 C         141.9451  140.8773  167.5661 C.ar    1  UNL1       -0.0093
     10 C         142.5704  139.8163  168.4225 C.ar    1  UNL1       -0.0011
     11 C         141.9003  139.3874  169.6940 C.ar    1  UNL1        0.0294
     12 C         140.6049  140.0195  170.1093 C.ar    1  UNL1        0.1410
     13 F         139.9348  139.5905  171.3809 F       1  UNL1       -0.2041
     14 C         139.9796  141.0804  169.2530 C.ar    1  UNL1        0.0407
     15 C         140.6497  141.5093  167.9814 C.ar    1  UNL1        0.0560
     16 CL        140.0244  142.5704  167.1250 Cl      1  UNL1       -0.0825
     17 C         144.6255  142.5931  162.4797 C.3     1  UNL1        0.0722
     18 O         140.7395  145.6680  161.5157 O.3     1  UNL1       -0.3785
     19 C         141.7246  144.7715  160.8260 C.3     1  UNL1        0.1498
     20 C         142.7075  144.0752  161.7199 C.3     1  UNL1        0.0368
     21 C         143.8052  143.1252  161.3422 C.3     1  UNL1        0.0191
     22 C         144.1911  142.6369  159.9773 C.3     1  UNL1        0.0062
     23 C         143.5745  142.9781  158.6532 C.3     1  UNL1        0.0277
     24 C         142.4199  143.8917  158.3667 C.ar    1  UNL1       -0.0063
     25 C         142.1211  143.9534  156.8981 C.ar    1  UNL1       -0.0014
     26 C         140.9991  144.8132  156.3965 C.ar    1  UNL1        0.0203
     27 C         140.1758  145.6114  157.3635 C.ar    1  UNL1        0.0985
     28 N         140.4745  145.5497  158.8321 N.ar    1  UNL1       -0.2461
     29 C         141.5966  144.6899  159.3337 C.ar    1  UNL1        0.0817
     30 H         140.9030  145.6533  162.4717 H       1  UNL1        0.2108
@<TRIPOS>BOND
     1    19    18    1
     2    19    20    1
     3    20    21    1
     4    21    17    1
     5    17     1    1
     6     1     2    1
     7     2     3    1
     8     3     4    1
     9     4     9    1
    10     9    10   ar
    11    10    11   ar
    12    11    12   ar
    13    12    13    1
    14    12    14   ar
    15    14    15   ar
    16    15    16    1
    17     4     5    1
    18     5     6    1
    19     5     7    1
    20    21    22    1
    21    22    23    1
    22    23    24    1
    23    24    25   ar
    24    25    26   ar
    25    26    27   ar
    26    27    28   ar
    27    28    29   ar
    28    29    19    1
    29     7     1    1
    30    29    24   ar
    31    15     9   ar
    32    18    30    1
    33     6     8    1
@<TRIPOS>MOLECULE
*****
 30 33 0 0 0
SMALL
GASTEIGER

@<TRIPOS>ATOM
      1 N         141.7878  138.3891  158.8469 N.3     1  UNL1       -0.2706
      2 C         140.2895  138.3798  158.9183 C.3     1  UNL1        0.0726
      3 C         139.6012  138.4947  160.2461 C.3     1  UNL1        0.0242
      4 C         140.4112  138.6190  161.5025 C.3     1  UNL1        0.0528
      5 C         141.9095  138.6283  161.4311 C.3     1  UNL1        0.1304
      6 O         142.7194  138.7526  162.6875 O.3     1  UNL1       -0.3827
      7 C         142.5978  138.5134  160.1033 C.3     1  UNL1        0.1020
      8 H         143.6637  138.7422  162.4658 H       1  UNL1        0.2104
      9 C         139.7229  138.7339  162.8303 C.ar    1  UNL1       -0.0093
     10 C         139.5388  137.5168  163.6875 C.ar    1  UNL1       -0.0011
     11 C         138.8505  137.6318  165.0153 C.ar    1  UNL1        0.0294
     12 C         138.3463  138.9638  165.4858 C.ar    1  UNL1        0.1410
     13 F         137.6579  139.0787  166.8137 F       1  UNL1       -0.2041
     14 C         138.5303  140.1809  164.6286 C.ar    1  UNL1        0.0407
     15 C         139.2186  140.0659  163.3009 C.ar    1  UNL1        0.0560
     16 CL        139.4027  141.2830  162.4436 Cl      1  UNL1       -0.0825
     17 C         142.4761  138.2742  157.5191 C.3     1  UNL1        0.0722
     18 O         143.9492  133.5101  158.3060 O.3     1  UNL1       -0.3785
     19 C         143.3497  134.3934  157.2523 C.3     1  UNL1        0.1498
     20 C         143.1344  135.8242  157.6478 C.3     1  UNL1        0.0368
     21 C         142.5610  136.9441  156.8310 C.3     1  UNL1        0.0191
     22 C         142.0613  136.9098  155.4170 C.3     1  UNL1        0.0062
     23 C         142.0116  135.7470  154.4707 C.3     1  UNL1        0.0277
     24 C         142.4493  134.3314  154.7045 C.ar    1  UNL1       -0.0063
     25 C         142.2251  133.4807  153.4896 C.ar    1  UNL1       -0.0014
     26 C         142.5964  132.0276  153.5126 C.ar    1  UNL1        0.0203
     27 C         143.1919  131.4252  154.7506 C.ar    1  UNL1        0.0985
     28 N         143.4161  132.2759  155.9655 N.ar    1  UNL1       -0.2461
     29 C         143.0448  133.7290  155.9424 C.ar    1  UNL1        0.0817
     30 H         144.1087  134.0286  159.1102 H       1  UNL1        0.2108
@<TRIPOS>BOND
     1    19    18    1
     2    19    20    1
     3    20    21    1
     4    21    17    1
     5    17     1    1
     6     1     2    1
     7     2     3    1
     8     3     4    1
     9     4     9    1
    10     9    10   ar
    11    10    11   ar
    12    11    12   ar
    13    12    13    1
    14    12    14   ar
    15    14    15   ar
    16    15    16    1
    17     4     5    1
    18     5     6    1
    19     5     7    1
    20    21    22    1
    21    22    23    1
    22    23    24    1
    23    24    25   ar
    24    25    26   ar
    25    26    27   ar
    26    27    28   ar
    27    28    29   ar
    28    29    19    1
    29     7     1    1
    30    29    24   ar
    31    15     9   ar
    32    18    30    1
    33     6     8    1
@<TRIPOS>MOLECULE
*****
 30 33 0 0 0
SMALL
GASTEIGER

@<TRIPOS>ATOM
      1 N         139.9085  138.2663  162.0184 N.3     1  UNL1       -0.2706
      2 C         139.4592  139.2106  160.9430 C.3     1  UNL1        0.0726
      3 C         140.3808  139.5490  159.8090 C.3     1  UNL1        0.0242
      4 C         141.7518  138.9432  159.7504 C.3     1  UNL1        0.0528
      5 C         142.2011  137.9990  160.8258 C.3     1  UNL1        0.1304
      6 O         143.5721  137.3932  160.7671 O.3     1  UNL1       -0.3827
      7 C         141.2795  137.6605  161.9598 C.3     1  UNL1        0.1020
      8 H         143.7014  136.8111  161.5322 H       1  UNL1        0.2104
      9 C         142.6735  139.2817  158.6163 C.ar    1  UNL1       -0.0093
     10 C         143.6432  140.4181  158.7516 C.ar    1  UNL1       -0.0011
     11 C         144.5647  140.7566  157.6175 C.ar    1  UNL1        0.0294
     12 C         144.5167  139.9586  156.3483 C.ar    1  UNL1        0.1410
     13 F         145.4383  140.2972  155.2142 F       1  UNL1       -0.2041
     14 C         143.5470  138.8223  156.2130 C.ar    1  UNL1        0.0407
     15 C         142.6254  138.4838  157.3471 C.ar    1  UNL1        0.0560
     16 CL        141.6556  137.3474  157.2119 Cl      1  UNL1       -0.0825
     17 C         138.9868  137.9278  163.1524 C.3     1  UNL1        0.0722
     18 O         137.1641  137.8831  167.8600 O.3     1  UNL1       -0.3785
     19 C         138.1725  138.5850  166.9995 C.3     1  UNL1        0.1498
     20 C         138.2533  138.1157  165.5771 C.3     1  UNL1        0.0368
     21 C         139.1483  138.6089  164.4791 C.3     1  UNL1        0.0191
     22 C         140.1835  139.6932  164.5322 C.3     1  UNL1        0.0062
     23 C         140.5793  140.5520  165.6966 C.3     1  UNL1        0.0277
     24 C         140.0377  140.5388  167.0954 C.ar    1  UNL1       -0.0063
     25 C         140.7132  141.5663  167.9543 C.ar    1  UNL1       -0.0014
     26 C         140.3175  141.7185  169.3931 C.ar    1  UNL1        0.0203
     27 C         139.2463  140.8431  169.9730 C.ar    1  UNL1        0.0985
     28 N         138.5708  139.8155  169.1140 N.ar    1  UNL1       -0.2461
     29 C         138.9666  139.6633  167.6752 C.ar    1  UNL1        0.0817
     30 H         136.7054  137.2082  167.3357 H       1  UNL1        0.2108
@<TRIPOS>BOND
     1    19    18    1
     2    19    20    1
     3    20    21    1
     4    21    17    1
     5    17     1    1
     6     1     2    1
     7     2     3    1
     8     3     4    1
     9     4     9    1
    10     9    10   ar
    11    10    11   ar
    12    11    12   ar
    13    12    13    1
    14    12    14   ar
    15    14    15   ar
    16    15    16    1
    17     4     5    1
    18     5     6    1
    19     5     7    1
    20    21    22    1
    21    22    23    1
    22    23    24    1
    23    24    25   ar
    24    25    26   ar
    25    26    27   ar
    26    27    28   ar
    27    28    29   ar
    28    29    19    1
    29     7     1    1
    30    29    24   ar
    31    15     9   ar
    32    18    30    1
    33     6     8    1
@<TRIPOS>MOLECULE
*****
 30 33 0 0 0
SMALL
GASTEIGER

@<TRIPOS>ATOM
      1 N         138.8225  140.0820  163.3438 N.3     1  UNL1       -0.2706
      2 C         139.6191  139.5270  162.2003 C.3     1  UNL1        0.0726
      3 C         139.6796  140.2693  160.8983 C.3     1  UNL1        0.0242
      4 C         138.9435  141.5666  160.7397 C.3     1  UNL1        0.0528
      5 C         138.1470  142.1216  161.8831 C.3     1  UNL1        0.1304
      6 O         137.4109  143.4190  161.7245 O.3     1  UNL1       -0.3827
      7 C         138.0864  141.3793  163.1852 C.3     1  UNL1        0.1020
      8 H         136.9506  143.6327  162.5512 H       1  UNL1        0.2104
      9 C         139.0041  142.3090  159.4376 C.ar    1  UNL1       -0.0093
     10 C         138.0931  141.9219  158.3106 C.ar    1  UNL1       -0.0011
     11 C         138.1536  142.6642  157.0086 C.ar    1  UNL1        0.0294
     12 C         139.1252  143.7936  156.8336 C.ar    1  UNL1        0.1410
     13 F         139.1857  144.5359  155.5316 F       1  UNL1       -0.2041
     14 C         140.0362  144.1806  157.9607 C.ar    1  UNL1        0.0407
     15 C         139.9756  143.4383  159.2627 C.ar    1  UNL1        0.0560
     16 CL        140.8866  143.8254  160.3898 Cl      1  UNL1       -0.0825
     17 C         138.7620  139.3397  164.6458 C.3     1  UNL1        0.0722
     18 O         138.4953  139.7441  169.6709 O.3     1  UNL1       -0.3785
     19 C         139.4040  140.0470  168.5166 C.3     1  UNL1        0.1498
     20 C         138.8861  139.6625  167.1623 C.3     1  UNL1        0.0368
     21 C         139.5468  139.8304  165.8262 C.3     1  UNL1        0.0191
     22 C         140.8885  140.4242  165.5142 C.3     1  UNL1        0.0062
     23 C         141.9009  140.9968  166.4615 C.3     1  UNL1        0.0277
     24 C         141.8217  141.1169  167.9546 C.ar    1  UNL1       -0.0063
     25 C         143.0569  141.7533  168.5195 C.ar    1  UNL1       -0.0014
     26 C         143.1809  141.9670  169.9989 C.ar    1  UNL1        0.0203
     27 C         142.0697  141.5443  170.9136 C.ar    1  UNL1        0.0985
     28 N         140.8345  140.9079  170.3487 N.ar    1  UNL1       -0.2461
     29 C         140.7104  140.6943  168.8692 C.ar    1  UNL1        0.0817
     30 H         137.6822  139.3297  169.3422 H       1  UNL1        0.2108
@<TRIPOS>BOND
     1    19    18    1
     2    19    20    1
     3    20    21    1
     4    21    17    1
     5    17     1    1
     6     1     2    1
     7     2     3    1
     8     3     4    1
     9     4     9    1
    10     9    10   ar
    11    10    11   ar
    12    11    12   ar
    13    12    13    1
    14    12    14   ar
    15    14    15   ar
    16    15    16    1
    17     4     5    1
    18     5     6    1
    19     5     7    1
    20    21    22    1
    21    22    23    1
    22    23    24    1
    23    24    25   ar
    24    25    26   ar
    25    26    27   ar
    26    27    28   ar
    27    28    29   ar
    28    29    19    1
    29     7     1    1
    30    29    24   ar
    31    15     9   ar
    32    18    30    1
    33     6     8    1
@<TRIPOS>MOLECULE
*****
 30 33 0 0 0
SMALL
GASTEIGER

@<TRIPOS>ATOM
      1 N         138.7620  141.8566  163.4393 N.3     1  UNL1       -0.2706
      2 C         138.7700  142.8749  164.5407 C.3     1  UNL1        0.0726
      3 C         139.4672  142.5749  165.8345 C.3     1  UNL1        0.0242
      4 C         140.1564  141.2566  166.0269 C.3     1  UNL1        0.0528
      5 C         140.1485  140.2383  164.9256 C.3     1  UNL1        0.1304
      6 O         140.8377  138.9200  165.1181 O.3     1  UNL1       -0.3827
      7 C         139.4513  140.5383  163.6318 C.3     1  UNL1        0.1020
      8 H         140.7381  138.3830  164.3165 H       1  UNL1        0.2104
      9 C         140.8536  140.9567  167.3208 C.ar    1  UNL1       -0.0093
     10 C         140.1534  140.1629  168.3836 C.ar    1  UNL1       -0.0011
     11 C         140.8507  139.8630  169.6774 C.ar    1  UNL1        0.0294
     12 C         142.2481  140.3568  169.9083 C.ar    1  UNL1        0.1410
     13 F         142.9453  140.0569  171.2022 F       1  UNL1       -0.2041
     14 C         142.9483  141.1505  168.8455 C.ar    1  UNL1        0.0407
     15 C         142.2511  141.4505  167.5517 C.ar    1  UNL1        0.0560
     16 CL        142.9513  142.2442  166.4888 Cl      1  UNL1       -0.0825
     17 C         138.0648  142.1566  162.1456 C.3     1  UNL1        0.0722
     18 O         141.8190  145.4277  161.3135 O.3     1  UNL1       -0.3785
     19 C         140.8200  144.5788  160.5845 C.3     1  UNL1        0.1498
     20 C         139.9033  143.7651  161.4491 C.3     1  UNL1        0.0368
     21 C         138.8101  142.8275  161.0300 C.3     1  UNL1        0.0191
     22 C         138.3634  142.4720  159.6428 C.3     1  UNL1        0.0062
     23 C         138.8999  142.9664  158.3322 C.3     1  UNL1        0.0277
     24 C         140.0153  143.9384  158.0849 C.ar    1  UNL1       -0.0063
     25 C         140.2334  144.1606  156.6176 C.ar    1  UNL1       -0.0014
     26 C         141.3061  145.1004  156.1527 C.ar    1  UNL1        0.0203
     27 C         142.1606  145.8179  157.1551 C.ar    1  UNL1        0.0985
     28 N         141.9425  145.5957  158.6224 N.ar    1  UNL1       -0.2461
     29 C         140.8699  144.6559  159.0873 C.ar    1  UNL1        0.0817
     30 H         141.7073  145.3092  162.2697 H       1  UNL1        0.2108
@<TRIPOS>BOND
     1    19    18    1
     2    19    20    1
     3    20    21    1
     4    21    17    1
     5    17     1    1
     6     1     2    1
     7     2     3    1
     8     3     4    1
     9     4     9    1
    10     9    10   ar
    11    10    11   ar
    12    11    12   ar
    13    12    13    1
    14    12    14   ar
    15    14    15   ar
    16    15    16    1
    17     4     5    1
    18     5     6    1
    19     5     7    1
    20    21    22    1
    21    22    23    1
    22    23    24    1
    23    24    25   ar
    24    25    26   ar
    25    26    27   ar
    26    27    28   ar
    27    28    29   ar
    28    29    19    1
    29     7     1    1
    30    29    24   ar
    31    15     9   ar
    32    18    30    1
    33     6     8    1
