@<TRIPOS>MOLECULE
*****
 31 33 0 0 0
SMALL
GASTEIGER

@<TRIPOS>ATOM
      1 C         138.9190  138.1642  162.3779 C.2     1  UNL1        0.2271
      2 O         137.5988  138.4900  161.7448 O.2     1  UNL1       -0.2747
      3 N         140.1950  138.5818  161.7089 N.am    1  UNL1       -0.3005
      4 H         141.0615  138.3680  162.1244 H       1  UNL1        0.1497
      5 C         140.1507  139.3252  160.4069 C.3     1  UNL1        0.1119
      6 C         140.2099  138.5721  159.1110 C.3     1  UNL1        0.0278
      7 C         140.0473  140.8216  160.4007 C.ar    1  UNL1        0.0770
      8 C         141.2857  141.6584  160.2736 C.ar    1  UNL1        0.0195
      9 C         141.1823  143.1548  160.2674 C.ar    1  UNL1        0.0398
     10 C         139.8405  143.8144  160.3884 C.ar    1  UNL1        0.1580
     11 C         138.6022  142.9776  160.5155 C.ar    1  UNL1        0.1353
     12 N         138.7056  141.4812  160.5216 N.ar    1  UNL1       -0.2433
     13 O         139.7371  145.3108  160.3822 O.3     1  UNL1       -0.4650
     14 C         139.7349  146.0678  161.6771 C.3     1  UNL1        0.3082
     15 C         139.9033  145.3346  162.9748 C.3     1  UNL1        0.4380
     16 F         140.0718  144.6013  164.2725 F       1  UNL1       -0.1663
     17 F         141.3858  145.5521  162.9053 F       1  UNL1       -0.1663
     18 F         138.4208  145.1170  163.0443 F       1  UNL1       -0.1663
     19 C         138.9633  137.4208  163.6800 C.3     1  UNL1        0.1113
     20 C         139.9410  139.6095  167.4883 C.ar    1  UNL1        0.0358
     21 C         141.0204  139.3325  166.4843 C.ar    1  UNL1        0.0028
     22 C         140.6945  138.6029  165.2148 C.ar    1  UNL1       -0.0037
     23 C         139.2892  138.1504  164.9495 C.ar    1  UNL1       -0.0131
     24 C         138.2098  138.4275  165.9535 C.ar    1  UNL1       -0.0037
     25 C         138.5358  139.1570  167.2230 C.ar    1  UNL1        0.0028
     26 C         140.5850  142.7974  167.7575 C.3     1  UNL1        0.0555
     27 C         140.5629  141.8044  168.8815 C.ar    1  UNL1        0.0970
     28 N         140.8329  142.1024  170.3266 N.ar    1  UNL1       -0.2086
     29 C         140.7039  140.8212  171.0961 C.ar    1  UNL1        0.2848
     30 O         140.3540  139.7315  170.1265 O.2     1  UNL1       -0.4315
     31 C         140.2669  140.3391  168.7578 C.ar    1  UNL1        0.1607
@<TRIPOS>BOND
     1    26    27    1
     2    27    28   ar
     3    28    29   ar
     4    29    30   ar
     5    30    31   ar
     6    31    20    1
     7    20    21   ar
     8    21    22   ar
     9    22    23   ar
    10    23    19    1
    11    19     1    1
    12     1     2    2
    13     1     3   am
    14     3     5    1
    15     5     6    1
    16     5     7    1
    17     7     8   ar
    18     8     9   ar
    19     9    10   ar
    20    10    13    1
    21    13    14    1
    22    14    15    1
    23    15    16    1
    24    15    17    1
    25    15    18    1
    26    10    11   ar
    27    11    12   ar
    28    23    24   ar
    29    24    25   ar
    30    31    27   ar
    31    25    20   ar
    32    12     7   ar
    33     3     4    1
@<TRIPOS>MOLECULE
*****
 31 33 0 0 0
SMALL
GASTEIGER

@<TRIPOS>ATOM
      1 C         144.3043  139.9109  162.5807 C.2     1  UNL1        0.2271
      2 O         145.1749  141.0842  162.2408 O.2     1  UNL1       -0.2747
      3 N         143.1887  139.5133  161.6601 N.am    1  UNL1       -0.3005
      4 H         142.6172  138.7432  161.8832 H       1  UNL1        0.1497
      5 C         142.9436  140.2889  160.3999 C.3     1  UNL1        0.1119
      6 C         143.5387  139.8224  159.1045 C.3     1  UNL1        0.0278
      7 C         142.1035  141.5311  160.4351 C.ar    1  UNL1        0.0770
      8 C         140.6148  141.4257  160.5853 C.ar    1  UNL1        0.0195
      9 C         139.7747  142.6678  160.6205 C.ar    1  UNL1        0.0398
     10 C         140.4233  144.0154  160.5054 C.ar    1  UNL1        0.1580
     11 C         141.9120  144.1209  160.3552 C.ar    1  UNL1        0.1353
     12 N         142.7521  142.8787  160.3200 N.ar    1  UNL1       -0.2433
     13 O         139.5832  145.2576  160.5406 O.3     1  UNL1       -0.4650
     14 C         139.5332  146.0942  161.7846 C.3     1  UNL1        0.3082
     15 C         139.7860  145.4648  163.1224 C.3     1  UNL1        0.4380
     16 F         140.0388  144.8354  164.4603 F       1  UNL1       -0.1663
     17 F         138.3452  145.0551  163.2019 F       1  UNL1       -0.1663
     18 F         141.2268  145.8745  163.0429 F       1  UNL1       -0.1663
     19 C         144.5493  139.1352  163.8409 C.3     1  UNL1        0.1113
     20 C         142.4885  140.3339  167.6575 C.ar    1  UNL1        0.0358
     21 C         142.8685  138.9011  167.4284 C.ar    1  UNL1        0.0028
     22 C         143.5554  138.5015  166.1562 C.ar    1  UNL1       -0.0037
     23 C         143.8624  139.5348  165.1131 C.ar    1  UNL1       -0.0131
     24 C         143.4824  140.9677  165.3422 C.ar    1  UNL1       -0.0037
     25 C         142.7955  141.3672  166.6144 C.ar    1  UNL1        0.0028
     26 C         139.3207  139.9367  168.3335 C.3     1  UNL1        0.0555
     27 C         140.3455  140.5510  169.2404 C.ar    1  UNL1        0.0970
     28 N         140.0941  141.0905  170.6172 N.ar    1  UNL1       -0.2086
     29 C         141.3949  141.6065  171.1575 C.ar    1  UNL1        0.2848
     30 O         142.4501  141.3859  170.1145 O.2     1  UNL1       -0.4315
     31 C         141.8015  140.7335  168.9297 C.ar    1  UNL1        0.1607
@<TRIPOS>BOND
     1    26    27    1
     2    27    28   ar
     3    28    29   ar
     4    29    30   ar
     5    30    31   ar
     6    31    20    1
     7    20    21   ar
     8    21    22   ar
     9    22    23   ar
    10    23    19    1
    11    19     1    1
    12     1     2    2
    13     1     3   am
    14     3     5    1
    15     5     6    1
    16     5     7    1
    17     7     8   ar
    18     8     9   ar
    19     9    10   ar
    20    10    13    1
    21    13    14    1
    22    14    15    1
    23    15    16    1
    24    15    17    1
    25    15    18    1
    26    10    11   ar
    27    11    12   ar
    28    23    24   ar
    29    24    25   ar
    30    31    27   ar
    31    25    20   ar
    32    12     7   ar
    33     3     4    1
@<TRIPOS>MOLECULE
*****
 31 33 0 0 0
SMALL
GASTEIGER

@<TRIPOS>ATOM
      1 C         140.7461  138.1839  161.9434 C.2     1  UNL1        0.2271
      2 O         139.3997  138.0748  161.2911 O.2     1  UNL1       -0.2747
      3 N         141.8128  139.0373  161.3237 N.am    1  UNL1       -0.3005
      4 H         142.6964  139.1089  161.7518 H       1  UNL1        0.1497
      5 C         141.5331  139.7815  160.0517 C.3     1  UNL1        0.1119
      6 C         141.6896  139.0914  158.7291 C.3     1  UNL1        0.0278
      7 C         141.0969  141.2158  160.1023 C.ar    1  UNL1        0.0770
      8 C         139.6376  141.5536  160.1800 C.ar    1  UNL1        0.0195
      9 C         139.2014  142.9879  160.2306 C.ar    1  UNL1        0.0398
     10 C         140.2246  144.0843  160.2035 C.ar    1  UNL1        0.1580
     11 C         141.6839  143.7465  160.1259 C.ar    1  UNL1        0.1353
     12 N         142.1201  142.3123  160.0753 N.ar    1  UNL1       -0.2433
     13 O         139.7884  145.5186  160.2542 O.3     1  UNL1       -0.4650
     14 C         139.6690  146.2201  161.5746 C.3     1  UNL1        0.3082
     15 C         139.7880  145.4413  162.8511 C.3     1  UNL1        0.4380
     16 F         139.9070  144.6626  164.1275 F       1  UNL1       -0.1663
     17 F         138.3376  145.0701  162.7598 F       1  UNL1       -0.1663
     18 F         141.2385  145.8126  162.9423 F       1  UNL1       -0.1663
     19 C         141.0257  137.4397  163.2154 C.3     1  UNL1        0.1113
     20 C         140.6992  139.5511  167.1758 C.ar    1  UNL1        0.0358
     21 C         142.0467  139.1715  166.6372 C.ar    1  UNL1        0.0028
     22 C         142.1555  138.4677  165.3170 C.ar    1  UNL1       -0.0037
     23 C         140.9168  138.1435  164.5356 C.ar    1  UNL1       -0.0131
     24 C         139.5694  138.5231  165.0742 C.ar    1  UNL1       -0.0037
     25 C         139.4606  139.2269  166.3944 C.ar    1  UNL1        0.0028
     26 C         140.5506  142.7805  167.6216 C.3     1  UNL1        0.0555
     27 C         140.5220  141.7392  168.7009 C.ar    1  UNL1        0.0970
     28 N         140.4201  141.9996  170.1746 N.ar    1  UNL1       -0.2086
     29 C         140.4254  140.6761  170.8806 C.ar    1  UNL1        0.2848
     30 O         140.5306  139.5978  169.8432 O.2     1  UNL1       -0.4315
     31 C         140.5903  140.2549  168.4961 C.ar    1  UNL1        0.1607
@<TRIPOS>BOND
     1    26    27    1
     2    27    28   ar
     3    28    29   ar
     4    29    30   ar
     5    30    31   ar
     6    31    20    1
     7    20    21   ar
     8    21    22   ar
     9    22    23   ar
    10    23    19    1
    11    19     1    1
    12     1     2    2
    13     1     3   am
    14     3     5    1
    15     5     6    1
    16     5     7    1
    17     7     8   ar
    18     8     9   ar
    19     9    10   ar
    20    10    13    1
    21    13    14    1
    22    14    15    1
    23    15    16    1
    24    15    17    1
    25    15    18    1
    26    10    11   ar
    27    11    12   ar
    28    23    24   ar
    29    24    25   ar
    30    31    27   ar
    31    25    20   ar
    32    12     7   ar
    33     3     4    1
@<TRIPOS>MOLECULE
*****
 31 33 0 0 0
SMALL
GASTEIGER

@<TRIPOS>ATOM
      1 C         140.7867  137.9327  163.8967 C.2     1  UNL1        0.2271
      2 O         141.4757  136.8720  164.7031 O.2     1  UNL1       -0.2747
      3 N         141.3964  139.2980  163.7765 N.am    1  UNL1       -0.3005
      4 H         140.9443  139.9942  163.2473 H       1  UNL1        0.1497
      5 C         142.6950  139.6025  164.4627 C.3     1  UNL1        0.1119
      6 C         143.9919  139.4056  163.7352 C.3     1  UNL1        0.0278
      7 C         142.6968  140.1039  165.8764 C.ar    1  UNL1        0.0770
      8 C         142.6644  139.1307  167.0174 C.ar    1  UNL1        0.0195
      9 C         142.6662  139.6321  168.4311 C.ar    1  UNL1        0.0398
     10 C         142.7003  141.1067  168.7039 C.ar    1  UNL1        0.1580
     11 C         142.7327  142.0799  167.5629 C.ar    1  UNL1        0.1353
     12 N         142.7309  141.5785  166.1492 N.ar    1  UNL1       -0.2433
     13 O         142.7021  141.6081  170.1176 O.3     1  UNL1       -0.4650
     14 C         141.5768  141.2490  171.0421 C.3     1  UNL1        0.3082
     15 C         140.1785  141.1324  170.5117 C.3     1  UNL1        0.4380
     16 F         138.7803  141.0158  169.9814 F       1  UNL1       -0.1663
     17 F         140.1431  142.6139  170.2793 F       1  UNL1       -0.1663
     18 F         140.2139  139.6510  170.7442 F       1  UNL1       -0.1663
     19 C         139.4881  137.6282  163.2106 C.3     1  UNL1        0.1113
     20 C         138.2093  140.0477  159.6384 C.ar    1  UNL1        0.0358
     21 C         137.4984  140.2119  160.9489 C.ar    1  UNL1        0.0028
     22 C         137.9247  139.4055  162.1396 C.ar    1  UNL1       -0.0037
     23 C         139.0619  138.4347  162.0198 C.ar    1  UNL1       -0.0131
     24 C         139.7728  138.2704  160.7092 C.ar    1  UNL1       -0.0037
     25 C         139.3466  139.0769  159.5185 C.ar    1  UNL1        0.0028
     26 C         139.2257  143.0590  158.8976 C.3     1  UNL1        0.0555
     27 C         138.2502  142.2383  158.1071 C.ar    1  UNL1        0.0970
     28 N         137.5707  142.6577  156.8373 N.ar    1  UNL1       -0.2086
     29 C         136.6835  141.5327  156.3930 C.ar    1  UNL1        0.2848
     30 O         136.8148  140.4181  157.3882 O.2     1  UNL1       -0.4315
     31 C         137.7831  140.8542  158.4476 C.ar    1  UNL1        0.1607
@<TRIPOS>BOND
     1    26    27    1
     2    27    28   ar
     3    28    29   ar
     4    29    30   ar
     5    30    31   ar
     6    31    20    1
     7    20    21   ar
     8    21    22   ar
     9    22    23   ar
    10    23    19    1
    11    19     1    1
    12     1     2    2
    13     1     3   am
    14     3     5    1
    15     5     6    1
    16     5     7    1
    17     7     8   ar
    18     8     9   ar
    19     9    10   ar
    20    10    13    1
    21    13    14    1
    22    14    15    1
    23    15    16    1
    24    15    17    1
    25    15    18    1
    26    10    11   ar
    27    11    12   ar
    28    23    24   ar
    29    24    25   ar
    30    31    27   ar
    31    25    20   ar
    32    12     7   ar
    33     3     4    1
@<TRIPOS>MOLECULE
*****
 31 33 0 0 0
SMALL
GASTEIGER

@<TRIPOS>ATOM
      1 C         138.2147  143.4404  162.8274 C.2     1  UNL1        0.2271
      2 O         137.3758  144.6839  162.8290 O.2     1  UNL1       -0.2747
      3 N         139.5116  143.4117  162.0742 N.am    1  UNL1       -0.3005
      4 H         140.0622  142.5955  162.0731 H       1  UNL1        0.1497
      5 C         139.9696  144.6263  161.3227 C.3     1  UNL1        0.1119
      6 C         140.2846  145.8920  162.0635 C.3     1  UNL1        0.0278
      7 C         140.1125  144.5753  159.8304 C.ar    1  UNL1        0.0770
      8 C         141.1315  145.4364  159.1447 C.ar    1  UNL1        0.0195
      9 C         141.2744  145.3854  157.6524 C.ar    1  UNL1        0.0398
     10 C         140.3984  144.4733  156.8458 C.ar    1  UNL1        0.1580
     11 C         139.3795  143.6122  157.5315 C.ar    1  UNL1        0.1353
     12 N         139.2366  143.6632  159.0238 N.ar    1  UNL1       -0.2433
     13 O         140.5414  144.4223  155.3535 O.3     1  UNL1       -0.4650
     14 C         139.6768  145.2894  154.4871 C.3     1  UNL1        0.3082
     15 C         139.1355  146.5819  155.0224 C.3     1  UNL1        0.4380
     16 F         138.5942  147.8744  155.5577 F       1  UNL1       -0.1663
     17 F         137.7761  145.9604  155.1483 F       1  UNL1       -0.1663
     18 F         140.4949  147.2034  154.8966 F       1  UNL1       -0.1663
     19 C         137.7567  142.2258  163.5789 C.3     1  UNL1        0.1113
     20 C         140.2699  140.5691  166.9239 C.ar    1  UNL1        0.0358
     21 C         139.2732  139.6900  166.2285 C.ar    1  UNL1        0.0028
     22 C         138.4355  140.2423  165.1135 C.ar    1  UNL1       -0.0037
     23 C         138.5945  141.6736  164.6939 C.ar    1  UNL1       -0.0131
     24 C         139.5912  142.5527  165.3893 C.ar    1  UNL1       -0.0037
     25 C         140.4289  142.0005  166.5043 C.ar    1  UNL1        0.0028
     26 C         143.1403  139.0514  166.5963 C.3     1  UNL1        0.0555
     27 C         142.4270  139.3193  167.8883 C.ar    1  UNL1        0.0970
     28 N         142.9079  138.9367  169.2566 N.ar    1  UNL1       -0.2086
     29 C         141.8858  139.3978  170.2530 C.ar    1  UNL1        0.2848
     30 O         140.7732  140.0654  169.5004 O.2     1  UNL1       -0.4315
     31 C         141.1077  140.0169  168.0389 C.ar    1  UNL1        0.1607
@<TRIPOS>BOND
     1    26    27    1
     2    27    28   ar
     3    28    29   ar
     4    29    30   ar
     5    30    31   ar
     6    31    20    1
     7    20    21   ar
     8    21    22   ar
     9    22    23   ar
    10    23    19    1
    11    19     1    1
    12     1     2    2
    13     1     3   am
    14     3     5    1
    15     5     6    1
    16     5     7    1
    17     7     8   ar
    18     8     9   ar
    19     9    10   ar
    20    10    13    1
    21    13    14    1
    22    14    15    1
    23    15    16    1
    24    15    17    1
    25    15    18    1
    26    10    11   ar
    27    11    12   ar
    28    23    24   ar
    29    24    25   ar
    30    31    27   ar
    31    25    20   ar
    32    12     7   ar
    33     3     4    1
@<TRIPOS>MOLECULE
*****
 31 33 0 0 0
SMALL
GASTEIGER

@<TRIPOS>ATOM
      1 C         140.5195  145.0954  161.0063 C.2     1  UNL1        0.2271
      2 O         139.3435  144.4087  160.3775 O.2     1  UNL1       -0.2747
      3 N         141.8351  145.1394  160.2868 N.am    1  UNL1       -0.3005
      4 H         142.6070  145.5901  160.6995 H       1  UNL1        0.1497
      5 C         141.9745  144.4968  158.9387 C.3     1  UNL1        0.1119
      6 C         141.7522  145.3060  157.6955 C.3     1  UNL1        0.0278
      7 C         142.3362  143.0448  158.8338 C.ar    1  UNL1        0.0770
      8 C         141.2661  142.0205  158.5976 C.ar    1  UNL1        0.0195
      9 C         141.6278  140.5686  158.4927 C.ar    1  UNL1        0.0398
     10 C         143.0595  140.1409  158.6239 C.ar    1  UNL1        0.1580
     11 C         144.1295  141.1652  158.8601 C.ar    1  UNL1        0.1353
     12 N         143.7679  142.6171  158.9651 N.ar    1  UNL1       -0.2433
     13 O         143.4212  138.6889  158.5190 O.3     1  UNL1       -0.4650
     14 C         142.8502  137.7015  159.4931 C.3     1  UNL1        0.3082
     15 C         142.8855  137.9929  160.9641 C.3     1  UNL1        0.4380
     16 F         142.9208  138.2842  162.4351 F       1  UNL1       -0.1663
     17 F         144.3843  137.9385  160.9389 F       1  UNL1       -0.1663
     18 F         141.3867  138.0473  160.9893 F       1  UNL1       -0.1663
     19 C         140.3801  145.7381  162.3544 C.3     1  UNL1        0.1113
     20 C         140.2997  143.1915  166.0636 C.ar    1  UNL1        0.0358
     21 C         139.0927  143.9948  165.6791 C.ar    1  UNL1        0.0028
     22 C         139.1196  144.8436  164.4427 C.ar    1  UNL1       -0.0037
     23 C         140.3533  144.8892  163.5908 C.ar    1  UNL1       -0.0131
     24 C         141.5603  144.0859  163.9753 C.ar    1  UNL1       -0.0037
     25 C         141.5335  143.2370  165.2117 C.ar    1  UNL1        0.0028
     26 C         139.8074  139.9670  166.1664 C.3     1  UNL1        0.0555
     27 C         140.0466  140.8605  167.3472 C.ar    1  UNL1        0.0970
     28 N         140.1016  140.4287  168.7827 N.ar    1  UNL1       -0.2086
     29 C         140.3618  141.6439  169.6227 C.ar    1  UNL1        0.2848
     30 O         140.4677  142.8268  168.7063 O.2     1  UNL1       -0.4315
     31 C         140.2729  142.3426  167.3000 C.ar    1  UNL1        0.1607
@<TRIPOS>BOND
     1    26    27    1
     2    27    28   ar
     3    28    29   ar
     4    29    30   ar
     5    30    31   ar
     6    31    20    1
     7    20    21   ar
     8    21    22   ar
     9    22    23   ar
    10    23    19    1
    11    19     1    1
    12     1     2    2
    13     1     3   am
    14     3     5    1
    15     5     6    1
    16     5     7    1
    17     7     8   ar
    18     8     9   ar
    19     9    10   ar
    20    10    13    1
    21    13    14    1
    22    14    15    1
    23    15    16    1
    24    15    17    1
    25    15    18    1
    26    10    11   ar
    27    11    12   ar
    28    23    24   ar
    29    24    25   ar
    30    31    27   ar
    31    25    20   ar
    32    12     7   ar
    33     3     4    1
@<TRIPOS>MOLECULE
*****
 31 33 0 0 0
SMALL
GASTEIGER

@<TRIPOS>ATOM
      1 C         136.2262  141.1033  155.9695 C.2     1  UNL1        0.2271
      2 O         137.0721  139.8686  155.8699 O.2     1  UNL1       -0.2747
      3 N         136.6771  142.2549  156.8184 N.am    1  UNL1       -0.3005
      4 H         136.1219  143.0653  156.8837 H       1  UNL1        0.1497
      5 C         137.9738  142.1718  157.5678 C.3     1  UNL1        0.1119
      6 C         139.2596  142.5303  156.8837 C.3     1  UNL1        0.0278
      7 C         137.9846  141.7300  159.0012 C.ar    1  UNL1        0.0770
      8 C         137.7622  140.2865  159.3429 C.ar    1  UNL1        0.0195
      9 C         137.7730  139.8448  160.7764 C.ar    1  UNL1        0.0398
     10 C         138.0063  140.8466  161.8681 C.ar    1  UNL1        0.1580
     11 C         138.2287  142.2901  161.5264 C.ar    1  UNL1        0.1353
     12 N         138.2179  142.7318  160.0930 N.ar    1  UNL1       -0.2433
     13 O         138.0171  140.4049  163.3016 O.3     1  UNL1       -0.4650
     14 C         139.1167  139.5172  163.8045 C.3     1  UNL1        0.3082
     15 C         138.7850  138.2909  164.6022 C.3     1  UNL1        0.4380
     16 F         138.4533  137.0646  165.3998 F       1  UNL1       -0.1663
     17 F         138.2786  139.1545  165.7192 F       1  UNL1       -0.1663
     18 F         139.2913  137.4273  163.4851 F       1  UNL1       -0.1663
     19 C         134.9296  141.1865  155.2201 C.3     1  UNL1        0.1113
     20 C         131.2716  139.1066  156.8149 C.ar    1  UNL1        0.0358
     21 C         131.1613  140.4937  156.2546 C.ar    1  UNL1        0.0028
     22 C         132.3806  141.1869  155.7230 C.ar    1  UNL1       -0.0037
     23 C         133.7102  140.4932  155.7517 C.ar    1  UNL1       -0.0131
     24 C         133.8205  139.1061  156.3120 C.ar    1  UNL1       -0.0037
     25 C         132.6012  138.4129  156.8436 C.ar    1  UNL1        0.0028
     26 C         128.8750  137.7998  155.0265 C.3     1  UNL1        0.0555
     27 C         128.9507  137.8126  156.5245 C.ar    1  UNL1        0.0970
     28 N         127.9381  137.2270  157.4635 N.ar    1  UNL1       -0.2086
     29 C         128.4139  137.4657  158.8659 C.ar    1  UNL1        0.2848
     30 O         129.7205  138.1989  158.7936 O.2     1  UNL1       -0.4315
     31 C         130.0523  138.4133  157.3465 C.ar    1  UNL1        0.1607
@<TRIPOS>BOND
     1    26    27    1
     2    27    28   ar
     3    28    29   ar
     4    29    30   ar
     5    30    31   ar
     6    31    20    1
     7    20    21   ar
     8    21    22   ar
     9    22    23   ar
    10    23    19    1
    11    19     1    1
    12     1     2    2
    13     1     3   am
    14     3     5    1
    15     5     6    1
    16     5     7    1
    17     7     8   ar
    18     8     9   ar
    19     9    10   ar
    20    10    13    1
    21    13    14    1
    22    14    15    1
    23    15    16    1
    24    15    17    1
    25    15    18    1
    26    10    11   ar
    27    11    12   ar
    28    23    24   ar
    29    24    25   ar
    30    31    27   ar
    31    25    20   ar
    32    12     7   ar
    33     3     4    1
@<TRIPOS>MOLECULE
*****
 31 33 0 0 0
SMALL
GASTEIGER

@<TRIPOS>ATOM
      1 C         141.1843  137.5460  162.8449 C.2     1  UNL1        0.2271
      2 O         140.0392  137.6172  161.8787 O.2     1  UNL1       -0.2747
      3 N         142.5765  137.8593  162.3825 N.am    1  UNL1       -0.3005
      4 H         143.3281  137.8126  163.0166 H       1  UNL1        0.1497
      5 C         142.8235  138.2440  160.9538 C.3     1  UNL1        0.1119
      6 C         143.0688  137.1823  159.9230 C.3     1  UNL1        0.0278
      7 C         142.8252  139.6902  160.5560 C.ar    1  UNL1        0.0770
      8 C         141.5600  140.3376  160.0763 C.ar    1  UNL1        0.0195
      9 C         141.5617  141.7839  159.6785 C.ar    1  UNL1        0.0398
     10 C         142.8285  142.5828  159.7604 C.ar    1  UNL1        0.1580
     11 C         144.0937  141.9354  160.2401 C.ar    1  UNL1        0.1353
     12 N         144.0920  140.4892  160.6380 N.ar    1  UNL1       -0.2433
     13 O         142.8302  144.0291  159.3626 O.3     1  UNL1       -0.4650
     14 C         142.4457  144.4237  157.9675 C.3     1  UNL1        0.3082
     15 C         141.4076  145.4837  157.7470 C.3     1  UNL1        0.4380
     16 F         140.3695  146.5437  157.5265 F       1  UNL1       -0.1663
     17 F         140.3266  144.4861  158.0405 F       1  UNL1       -0.1663
     18 F         142.4886  146.4813  157.4535 F       1  UNL1       -0.1663
     19 C         140.9374  137.1613  164.2735 C.3     1  UNL1        0.1113
     20 C         140.4481  140.3509  167.4100 C.ar    1  UNL1        0.0358
     21 C         141.8175  139.8531  167.0538 C.ar    1  UNL1        0.0028
     22 C         141.9805  138.7899  166.0083 C.ar    1  UNL1       -0.0037
     23 C         140.7742  138.2246  165.3191 C.ar    1  UNL1       -0.0131
     24 C         139.4048  138.7223  165.6753 C.ar    1  UNL1       -0.0037
     25 C         139.2417  139.7855  166.7207 C.ar    1  UNL1        0.0028
     26 C         138.8666  140.0258  170.2460 C.3     1  UNL1        0.0555
     27 C         139.5580  141.2646  169.7591 C.ar    1  UNL1        0.0970
     28 N         139.6439  142.5716  170.4902 N.ar    1  UNL1       -0.2086
     29 C         140.4239  143.5288  169.6385 C.ar    1  UNL1        0.2848
     30 O         140.8201  142.8134  168.3810 O.2     1  UNL1       -0.4315
     31 C         140.2849  141.4141  168.4555 C.ar    1  UNL1        0.1607
@<TRIPOS>BOND
     1    26    27    1
     2    27    28   ar
     3    28    29   ar
     4    29    30   ar
     5    30    31   ar
     6    31    20    1
     7    20    21   ar
     8    21    22   ar
     9    22    23   ar
    10    23    19    1
    11    19     1    1
    12     1     2    2
    13     1     3   am
    14     3     5    1
    15     5     6    1
    16     5     7    1
    17     7     8   ar
    18     8     9   ar
    19     9    10   ar
    20    10    13    1
    21    13    14    1
    22    14    15    1
    23    15    16    1
    24    15    17    1
    25    15    18    1
    26    10    11   ar
    27    11    12   ar
    28    23    24   ar
    29    24    25   ar
    30    31    27   ar
    31    25    20   ar
    32    12     7   ar
    33     3     4    1
@<TRIPOS>MOLECULE
*****
 31 33 0 0 0
SMALL
GASTEIGER

@<TRIPOS>ATOM
      1 C         140.3440  138.1656  162.5266 C.2     1  UNL1        0.2271
      2 O         141.1575  136.9055  162.5078 O.2     1  UNL1       -0.2747
      3 N         140.6846  139.2921  161.5964 N.am    1  UNL1       -0.3005
      4 H         140.1507  140.1192  161.6088 H       1  UNL1        0.1497
      5 C         141.8386  139.1585  160.6476 C.3     1  UNL1        0.1119
      6 C         143.1858  139.6999  161.0243 C.3     1  UNL1        0.0278
      7 C         141.6454  138.4835  159.3220 C.ar    1  UNL1        0.0770
      8 C         142.8248  137.9118  158.5925 C.ar    1  UNL1        0.0195
      9 C         142.6316  137.2368  157.2670 C.ar    1  UNL1        0.0398
     10 C         141.2590  137.1335  156.6710 C.ar    1  UNL1        0.1580
     11 C         140.0796  137.7051  157.4005 C.ar    1  UNL1        0.1353
     12 N         140.2728  138.3801  158.7260 N.ar    1  UNL1       -0.2433
     13 O         141.0658  136.4585  155.3454 O.3     1  UNL1       -0.4650
     14 C         141.0991  134.9617  155.2541 C.3     1  UNL1        0.3082
     15 C         142.4118  134.2369  155.2933 C.3     1  UNL1        0.4380
     16 F         143.7245  133.5121  155.3325 F       1  UNL1       -0.1663
     17 F         141.7802  133.1362  156.0930 F       1  UNL1       -0.1663
     18 F         143.0434  135.3376  154.4935 F       1  UNL1       -0.1663
     19 C         139.1900  138.2992  163.4754 C.3     1  UNL1        0.1113
     20 C         139.8760  139.8299  167.6511 C.ar    1  UNL1        0.0358
     21 C         138.5115  139.3635  167.2380 C.ar    1  UNL1        0.0028
     22 C         138.2829  138.8533  165.8461 C.ar    1  UNL1       -0.0037
     23 C         139.4187  138.8095  164.8674 C.ar    1  UNL1       -0.0131
     24 C         140.7832  139.2758  165.2805 C.ar    1  UNL1       -0.0037
     25 C         141.0118  139.7861  166.6723 C.ar    1  UNL1        0.0028
     26 C         140.3533  142.9452  168.4979 C.3     1  UNL1        0.0555
     27 C         140.3240  141.7721  169.4323 C.ar    1  UNL1        0.0970
     28 N         140.5091  141.8250  170.9198 N.ar    1  UNL1       -0.2086
     29 C         140.4040  140.4257  171.4501 C.ar    1  UNL1        0.2848
     30 O         140.1541  139.5081  170.2901 O.2     1  UNL1       -0.4315
     31 C         140.1046  140.3402  169.0430 C.ar    1  UNL1        0.1607
@<TRIPOS>BOND
     1    26    27    1
     2    27    28   ar
     3    28    29   ar
     4    29    30   ar
     5    30    31   ar
     6    31    20    1
     7    20    21   ar
     8    21    22   ar
     9    22    23   ar
    10    23    19    1
    11    19     1    1
    12     1     2    2
    13     1     3   am
    14     3     5    1
    15     5     6    1
    16     5     7    1
    17     7     8   ar
    18     8     9   ar
    19     9    10   ar
    20    10    13    1
    21    13    14    1
    22    14    15    1
    23    15    16    1
    24    15    17    1
    25    15    18    1
    26    10    11   ar
    27    11    12   ar
    28    23    24   ar
    29    24    25   ar
    30    31    27   ar
    31    25    20   ar
    32    12     7   ar
    33     3     4    1
