@<TRIPOS>MOLECULE
*****
 33 36 0 0 0
SMALL
GASTEIGER

@<TRIPOS>ATOM
      1 O         138.1094  141.6739  164.9680 O.2     1  UNL1       -0.2670
      2 C         138.4095  140.4435  164.1640 C.ar    1  UNL1        0.2613
      3 C         138.4449  140.5165  162.6662 C.ar    1  UNL1        0.0623
      4 C         138.7449  139.2862  161.8623 C.ar    1  UNL1        0.0240
      5 C         139.0095  137.9829  162.5562 C.ar    1  UNL1        0.0204
      6 C         138.9740  137.9100  164.0539 C.ar    1  UNL1        0.0787
      7 N         138.6740  139.1403  164.8579 N.ar    1  UNL1       -0.2897
      8 C         138.7804  139.3592  160.3645 C.ar    1  UNL1        0.0859
      9 C         139.6967  138.4579  159.5912 C.ar    1  UNL1        0.0399
     10 C         139.7322  138.5309  158.0934 C.ar    1  UNL1        0.1034
     11 N         138.8513  139.5051  157.3688 N.ar    1  UNL1       -0.2123
     12 C         137.9350  140.4064  158.1421 C.ar    1  UNL1        0.2168
     13 N         137.8995  140.3334  159.6400 N.ar    1  UNL1       -0.2138
     14 N         137.0541  141.3807  157.4177 N.pl3   1  UNL1       -0.3045
     15 H         136.0915  141.1976  157.3228 H       1  UNL1        0.1496
     16 C         137.6400  142.6338  156.8378 C.3     1  UNL1        0.0768
     17 C         138.9536  143.1517  157.3441 C.3     1  UNL1        0.0517
     18 C         139.5395  144.4049  156.7642 C.3     1  UNL1        0.1439
     19 O         138.8117  145.1402  155.6781 O.3     1  UNL1       -0.3537
     20 C         137.4981  144.6224  155.1718 C.3     1  UNL1        0.1439
     21 C         136.9123  143.3692  155.7517 C.3     1  UNL1        0.0517
     22 C         138.6385  139.0673  166.3557 C.3     1  UNL1        0.1402
     23 C         139.7796  139.6151  167.1605 C.ar    1  UNL1        0.0030
     24 C         141.1591  139.6585  166.5729 C.ar    1  UNL1       -0.0014
     25 C         142.3002  140.2063  167.3777 C.ar    1  UNL1        0.0134
     26 C         142.0619  140.7107  168.7701 C.ar    1  UNL1        0.0850
     27 CL        143.2030  141.2585  169.5750 Cl      1  UNL1       -0.0799
     28 C         140.6825  140.6673  169.3577 C.ar    1  UNL1        0.1503
     29 F         140.4442  141.1717  170.7502 F       1  UNL1       -0.2033
     30 C         139.5413  140.1195  168.5529 C.ar    1  UNL1        0.0281
     31 C         137.4619  138.4465  167.0487 C.3     1  UNL1        0.1642
     32 O         137.3378  136.9535  167.1238 O.3     1  UNL1       -0.3797
     33 H         137.2089  136.5945  166.2320 H       1  UNL1        0.2105
@<TRIPOS>BOND
     1     1     2    2
     2     2     3   ar
     3     3     4   ar
     4     4     8    1
     5     8     9   ar
     6     9    10   ar
     7    10    11   ar
     8    11    12   ar
     9    12    14    1
    10    14    16    1
    11    16    17    1
    12    17    18    1
    13    18    19    1
    14    19    20    1
    15    20    21    1
    16    12    13   ar
    17     4     5   ar
    18     5     6   ar
    19     6     7   ar
    20     7    22    1
    21    22    31    1
    22    31    32    1
    23    22    23    1
    24    23    24   ar
    25    24    25   ar
    26    25    26   ar
    27    26    27    1
    28    26    28   ar
    29    28    29    1
    30    28    30   ar
    31     7     2   ar
    32    30    23   ar
    33    13     8   ar
    34    21    16    1
    35    14    15    1
    36    32    33    1
@<TRIPOS>MOLECULE
*****
 33 36 0 0 0
SMALL
GASTEIGER

@<TRIPOS>ATOM
      1 O         141.0462  137.5279  162.0135 O.2     1  UNL1       -0.2670
      2 C         141.0288  138.4365  160.8200 C.ar    1  UNL1        0.2613
      3 C         142.0526  138.2707  159.7363 C.ar    1  UNL1        0.0623
      4 C         142.0352  139.1793  158.5429 C.ar    1  UNL1        0.0240
      5 C         140.9941  140.2535  158.4332 C.ar    1  UNL1        0.0204
      6 C         139.9704  140.4192  159.5169 C.ar    1  UNL1        0.0787
      7 N         139.9878  139.5107  160.7103 N.ar    1  UNL1       -0.2897
      8 C         143.0591  139.0135  157.4592 C.ar    1  UNL1        0.0859
      9 C         143.8610  140.1943  156.9981 C.ar    1  UNL1        0.0399
     10 C         144.8848  140.0286  155.9145 C.ar    1  UNL1        0.1034
     11 N         145.1066  138.6820  155.2918 N.ar    1  UNL1       -0.2123
     12 C         144.3046  137.5012  155.7528 C.ar    1  UNL1        0.2168
     13 N         143.2808  137.6670  156.8365 N.ar    1  UNL1       -0.2138
     14 N         144.5264  136.1547  155.1302 N.pl3   1  UNL1       -0.3045
     15 H         145.2664  136.0222  154.4944 H       1  UNL1        0.1496
     16 C         143.6208  135.0102  155.4762 C.3     1  UNL1        0.0768
     17 C         142.3899  134.7539  154.6581 C.3     1  UNL1        0.0517
     18 C         141.4843  133.6092  155.0041 C.3     1  UNL1        0.1439
     19 O         141.8095  132.7209  156.1682 O.3     1  UNL1       -0.3537
     20 C         143.0404  132.9772  156.9863 C.3     1  UNL1        0.1439
     21 C         143.9460  134.1218  156.6403 C.3     1  UNL1        0.0517
     22 C         138.9639  139.6765  161.7940 C.3     1  UNL1        0.1402
     23 C         138.9939  140.8902  162.6748 C.ar    1  UNL1        0.0030
     24 C         139.8596  140.9068  163.8998 C.ar    1  UNL1       -0.0014
     25 C         139.8896  142.1206  164.7806 C.ar    1  UNL1        0.0134
     26 C         139.0540  143.3178  164.4365 C.ar    1  UNL1        0.0850
     27 CL        139.0840  144.5315  165.3173 Cl      1  UNL1       -0.0799
     28 C         138.1884  143.3013  163.2116 C.ar    1  UNL1        0.1503
     29 F         137.3528  144.4985  162.8675 F       1  UNL1       -0.2033
     30 C         138.1583  142.0874  162.3307 C.ar    1  UNL1        0.0281
     31 C         137.9102  138.6284  161.9969 C.3     1  UNL1        0.1642
     32 O         138.2574  137.3375  162.6772 O.3     1  UNL1       -0.3797
     33 H         138.8790  136.8379  162.1248 H       1  UNL1        0.2105
@<TRIPOS>BOND
     1     1     2    2
     2     2     3   ar
     3     3     4   ar
     4     4     8    1
     5     8     9   ar
     6     9    10   ar
     7    10    11   ar
     8    11    12   ar
     9    12    14    1
    10    14    16    1
    11    16    17    1
    12    17    18    1
    13    18    19    1
    14    19    20    1
    15    20    21    1
    16    12    13   ar
    17     4     5   ar
    18     5     6   ar
    19     6     7   ar
    20     7    22    1
    21    22    31    1
    22    31    32    1
    23    22    23    1
    24    23    24   ar
    25    24    25   ar
    26    25    26   ar
    27    26    27    1
    28    26    28   ar
    29    28    29    1
    30    28    30   ar
    31     7     2   ar
    32    30    23   ar
    33    13     8   ar
    34    21    16    1
    35    14    15    1
    36    32    33    1
@<TRIPOS>MOLECULE
*****
 33 36 0 0 0
SMALL
GASTEIGER

@<TRIPOS>ATOM
      1 O         139.5831  136.8360  165.0566 O.2     1  UNL1       -0.2670
      2 C         139.0949  138.0504  164.3239 C.ar    1  UNL1        0.2613
      3 C         139.1692  138.1033  162.8267 C.ar    1  UNL1        0.0623
      4 C         138.6809  139.3177  162.0940 C.ar    1  UNL1        0.0240
      5 C         138.1183  140.4791  162.8585 C.ar    1  UNL1        0.0204
      6 C         138.0439  140.4261  164.3557 C.ar    1  UNL1        0.0787
      7 N         138.5322  139.2118  165.0884 N.ar    1  UNL1       -0.2897
      8 C         138.7553  139.3707  160.5968 C.ar    1  UNL1        0.0859
      9 C         139.6338  138.4073  159.8550 C.ar    1  UNL1        0.0399
     10 C         139.7082  138.4602  158.3578 C.ar    1  UNL1        0.1034
     11 N         138.9041  139.4765  157.6023 N.ar    1  UNL1       -0.2123
     12 C         138.0256  140.4398  158.3441 C.ar    1  UNL1        0.2168
     13 N         137.9512  140.3869  159.8414 N.ar    1  UNL1       -0.2138
     14 N         137.2215  141.4561  157.5887 N.pl3   1  UNL1       -0.3045
     15 H         137.1676  142.3831  157.9157 H       1  UNL1        0.1496
     16 C         136.4996  141.0599  156.3350 C.3     1  UNL1        0.0768
     17 C         137.1645  141.2298  155.0011 C.3     1  UNL1        0.0517
     18 C         136.4425  140.8336  153.7474 C.3     1  UNL1        0.1439
     19 O         135.0558  140.2675  153.8275 O.3     1  UNL1       -0.3537
     20 C         134.3909  140.0976  155.1613 C.3     1  UNL1        0.1439
     21 C         135.1128  140.4938  156.4150 C.3     1  UNL1        0.0517
     22 C         138.4578  139.1588  166.5857 C.3     1  UNL1        0.1402
     23 C         139.4895  139.8662  167.4133 C.ar    1  UNL1        0.0030
     24 C         139.2248  140.1466  168.8630 C.ar    1  UNL1       -0.0014
     25 C         140.2565  140.8540  169.6906 C.ar    1  UNL1        0.0134
     26 C         141.5530  141.2810  169.0687 C.ar    1  UNL1        0.0850
     27 CL        142.5848  141.9884  169.8964 Cl      1  UNL1       -0.0799
     28 C         141.8178  141.0007  167.6192 C.ar    1  UNL1        0.1503
     29 F         143.1143  141.4277  166.9973 F       1  UNL1       -0.2033
     30 C         140.7860  140.2932  166.7914 C.ar    1  UNL1        0.0281
     31 C         137.3516  138.3985  167.2552 C.3     1  UNL1        0.1642
     32 O         137.2977  136.9033  167.1484 O.3     1  UNL1       -0.3797
     33 H         137.1334  136.6507  166.2264 H       1  UNL1        0.2105
@<TRIPOS>BOND
     1     1     2    2
     2     2     3   ar
     3     3     4   ar
     4     4     8    1
     5     8     9   ar
     6     9    10   ar
     7    10    11   ar
     8    11    12   ar
     9    12    14    1
    10    14    16    1
    11    16    17    1
    12    17    18    1
    13    18    19    1
    14    19    20    1
    15    20    21    1
    16    12    13   ar
    17     4     5   ar
    18     5     6   ar
    19     6     7   ar
    20     7    22    1
    21    22    31    1
    22    31    32    1
    23    22    23    1
    24    23    24   ar
    25    24    25   ar
    26    25    26   ar
    27    26    27    1
    28    26    28   ar
    29    28    29    1
    30    28    30   ar
    31     7     2   ar
    32    30    23   ar
    33    13     8   ar
    34    21    16    1
    35    14    15    1
    36    32    33    1
@<TRIPOS>MOLECULE
*****
 33 36 0 0 0
SMALL
GASTEIGER

@<TRIPOS>ATOM
      1 O         139.3208  138.5143  157.5260 O.2     1  UNL1       -0.2670
      2 C         140.1350  138.3643  158.7768 C.ar    1  UNL1        0.2613
      3 C         139.4883  138.5420  160.1185 C.ar    1  UNL1        0.0623
      4 C         140.3025  138.3920  161.3693 C.ar    1  UNL1        0.0240
      5 C         141.7635  138.0643  161.2785 C.ar    1  UNL1        0.0204
      6 C         142.4102  137.8867  159.9368 C.ar    1  UNL1        0.0787
      7 N         141.5959  138.0367  158.6860 N.ar    1  UNL1       -0.2897
      8 C         139.6558  138.5697  162.7111 C.ar    1  UNL1        0.0859
      9 C         139.6953  137.4567  163.7160 C.ar    1  UNL1        0.0399
     10 C         139.0486  137.6343  165.0577 C.ar    1  UNL1        0.1034
     11 N         138.3622  138.9249  165.3945 N.ar    1  UNL1       -0.2123
     12 C         138.3227  140.0379  164.3896 C.ar    1  UNL1        0.2168
     13 N         138.9695  139.8602  163.0479 N.ar    1  UNL1       -0.2138
     14 N         137.6365  141.3284  164.7264 N.pl3   1  UNL1       -0.3045
     15 H         136.7795  141.3184  165.2110 H       1  UNL1        0.1496
     16 C         138.2558  142.6342  164.3248 C.3     1  UNL1        0.0768
     17 C         139.4702  143.1412  165.0447 C.3     1  UNL1        0.0517
     18 C         140.0895  144.4470  164.6431 C.3     1  UNL1        0.1439
     19 O         139.4945  145.2458  163.5216 O.3     1  UNL1       -0.3537
     20 C         138.2801  144.7389  162.8017 C.3     1  UNL1        0.1439
     21 C         137.6607  143.4331  163.2033 C.3     1  UNL1        0.0517
     22 C         142.2427  137.8590  157.3442 C.3     1  UNL1        0.1402
     23 C         142.2174  136.5188  156.6710 C.ar    1  UNL1        0.0030
     24 C         141.1931  136.2298  155.6139 C.ar    1  UNL1       -0.0014
     25 C         141.1678  134.8896  154.9406 C.ar    1  UNL1        0.0134
     26 C         142.1667  133.8385  155.3245 C.ar    1  UNL1        0.0850
     27 CL        142.1414  132.4983  154.6513 Cl      1  UNL1       -0.0799
     28 C         143.1909  134.1275  156.3815 C.ar    1  UNL1        0.1503
     29 F         144.1898  133.0763  156.7654 F       1  UNL1       -0.2033
     30 C         143.2163  135.4677  157.0548 C.ar    1  UNL1        0.0281
     31 C         142.9148  139.0215  156.6758 C.3     1  UNL1        0.1642
     32 O         144.2584  139.4871  157.1533 O.3     1  UNL1       -0.3797
     33 H         144.1769  139.8418  158.0524 H       1  UNL1        0.2105
@<TRIPOS>BOND
     1     1     2    2
     2     2     3   ar
     3     3     4   ar
     4     4     8    1
     5     8     9   ar
     6     9    10   ar
     7    10    11   ar
     8    11    12   ar
     9    12    14    1
    10    14    16    1
    11    16    17    1
    12    17    18    1
    13    18    19    1
    14    19    20    1
    15    20    21    1
    16    12    13   ar
    17     4     5   ar
    18     5     6   ar
    19     6     7   ar
    20     7    22    1
    21    22    31    1
    22    31    32    1
    23    22    23    1
    24    23    24   ar
    25    24    25   ar
    26    25    26   ar
    27    26    27    1
    28    26    28   ar
    29    28    29    1
    30    28    30   ar
    31     7     2   ar
    32    30    23   ar
    33    13     8   ar
    34    21    16    1
    35    14    15    1
    36    32    33    1
@<TRIPOS>MOLECULE
*****
 33 36 0 0 0
SMALL
GASTEIGER

@<TRIPOS>ATOM
      1 O         140.9168  137.2218  164.0065 O.2     1  UNL1       -0.2670
      2 C         140.0107  138.1743  163.2840 C.ar    1  UNL1        0.2613
      3 C         139.9909  138.1991  161.7844 C.ar    1  UNL1        0.0623
      4 C         139.0848  139.1515  161.0620 C.ar    1  UNL1        0.0240
      5 C         138.1986  140.0792  161.8392 C.ar    1  UNL1        0.0204
      6 C         138.2184  140.0543  163.3388 C.ar    1  UNL1        0.0787
      7 N         139.1245  139.1019  164.0612 N.ar    1  UNL1       -0.2897
      8 C         139.0650  139.1763  159.5622 C.ar    1  UNL1        0.0859
      9 C         138.4269  140.3255  158.8395 C.ar    1  UNL1        0.0399
     10 C         138.4071  140.3503  157.3399 C.ar    1  UNL1        0.1034
     11 N         139.0253  139.2259  156.5629 N.ar    1  UNL1       -0.2123
     12 C         139.6634  138.0767  157.2856 C.ar    1  UNL1        0.2168
     13 N         139.6832  138.0520  158.7853 N.ar    1  UNL1       -0.2138
     14 N         140.2816  136.9524  156.5087 N.pl3   1  UNL1       -0.3045
     15 H         139.7241  136.2012  156.2018 H       1  UNL1        0.1496
     16 C         141.7492  136.9726  156.1994 C.3     1  UNL1        0.0768
     17 C         142.4407  138.2758  155.9282 C.3     1  UNL1        0.0517
     18 C         143.9084  138.2959  155.6189 C.3     1  UNL1        0.1439
     19 O         144.6845  137.0129  155.5808 O.3     1  UNL1       -0.3537
     20 C         143.9930  135.7097  155.8520 C.3     1  UNL1        0.1439
     21 C         142.5254  135.6895  156.1613 C.3     1  UNL1        0.0517
     22 C         139.1443  139.0771  165.5609 C.3     1  UNL1        0.1402
     23 C         140.1522  139.8963  166.3113 C.ar    1  UNL1        0.0030
     24 C         141.5359  139.3621  166.5352 C.ar    1  UNL1       -0.0014
     25 C         142.5438  140.1813  167.2855 C.ar    1  UNL1        0.0134
     26 C         142.1680  141.5346  167.8121 C.ar    1  UNL1        0.0850
     27 CL        143.1759  142.3538  168.5625 Cl      1  UNL1       -0.0799
     28 C         140.7844  142.0688  167.5883 C.ar    1  UNL1        0.1503
     29 F         140.4086  143.4221  168.1149 F       1  UNL1       -0.2033
     30 C         139.7764  141.2496  166.8379 C.ar    1  UNL1        0.0281
     31 C         138.1562  138.2331  166.3102 C.3     1  UNL1        0.1642
     32 O         137.7678  138.5993  167.7120 O.3     1  UNL1       -0.3797
     33 H         138.5369  138.5055  168.2956 H       1  UNL1        0.2105
@<TRIPOS>BOND
     1     1     2    2
     2     2     3   ar
     3     3     4   ar
     4     4     8    1
     5     8     9   ar
     6     9    10   ar
     7    10    11   ar
     8    11    12   ar
     9    12    14    1
    10    14    16    1
    11    16    17    1
    12    17    18    1
    13    18    19    1
    14    19    20    1
    15    20    21    1
    16    12    13   ar
    17     4     5   ar
    18     5     6   ar
    19     6     7   ar
    20     7    22    1
    21    22    31    1
    22    31    32    1
    23    22    23    1
    24    23    24   ar
    25    24    25   ar
    26    25    26   ar
    27    26    27    1
    28    26    28   ar
    29    28    29    1
    30    28    30   ar
    31     7     2   ar
    32    30    23   ar
    33    13     8   ar
    34    21    16    1
    35    14    15    1
    36    32    33    1
@<TRIPOS>MOLECULE
*****
 33 36 0 0 0
SMALL
GASTEIGER

@<TRIPOS>ATOM
      1 O         141.4784  142.1070  162.4802 O.2     1  UNL1       -0.2670
      2 C         142.2291  140.9251  161.9421 C.ar    1  UNL1        0.2613
      3 C         141.7386  140.2220  160.7113 C.ar    1  UNL1        0.0623
      4 C         142.4894  139.0401  160.1733 C.ar    1  UNL1        0.0240
      5 C         143.7307  138.5614  160.8660 C.ar    1  UNL1        0.0204
      6 C         144.2212  139.2645  162.0968 C.ar    1  UNL1        0.0787
      7 N         143.4704  140.4464  162.6349 N.ar    1  UNL1       -0.2897
      8 C         141.9988  138.3369  158.9424 C.ar    1  UNL1        0.0859
      9 C         140.5974  138.5632  158.4577 C.ar    1  UNL1        0.0399
     10 C         140.1067  137.8601  157.2269 C.ar    1  UNL1        0.1034
     11 N         141.0175  136.9307  156.4807 N.ar    1  UNL1       -0.2123
     12 C         142.4189  136.7045  156.9654 C.ar    1  UNL1        0.2168
     13 N         142.9096  137.4076  158.1963 N.ar    1  UNL1       -0.2138
     14 N         143.3297  135.7751  156.2192 N.pl3   1  UNL1       -0.3045
     15 H         144.0770  136.1375  155.6905 H       1  UNL1        0.1496
     16 C         143.1020  134.2938  156.2787 C.3     1  UNL1        0.0768
     17 C         141.9673  133.6781  155.5149 C.3     1  UNL1        0.0517
     18 C         141.7396  132.1966  155.5745 C.3     1  UNL1        0.1439
     19 O         142.6466  131.3309  156.3977 O.3     1  UNL1       -0.3537
     20 C         143.7813  131.9466  157.1615 C.3     1  UNL1        0.1439
     21 C         144.0090  133.4279  157.1020 C.3     1  UNL1        0.0517
     22 C         143.9610  141.1495  163.8657 C.3     1  UNL1        0.1402
     23 C         143.3712  140.8178  165.2044 C.ar    1  UNL1        0.0030
     24 C         143.4580  139.4178  165.7361 C.ar    1  UNL1       -0.0014
     25 C         142.8682  139.0860  167.0747 C.ar    1  UNL1        0.0134
     26 C         142.1916  140.1541  167.8817 C.ar    1  UNL1        0.0850
     27 CL        141.6018  139.8223  169.2203 Cl      1  UNL1       -0.0799
     28 C         142.1048  141.5540  167.3501 C.ar    1  UNL1        0.1503
     29 F         141.4281  142.6222  168.1571 F       1  UNL1       -0.2033
     30 C         142.6946  141.8859  166.0114 C.ar    1  UNL1        0.0281
     31 C         145.0415  142.1845  163.7579 C.3     1  UNL1        0.1642
     32 O         146.3484  141.8394  163.1076 O.3     1  UNL1       -0.3797
     33 H         146.8113  141.1767  163.6438 H       1  UNL1        0.2105
@<TRIPOS>BOND
     1     1     2    2
     2     2     3   ar
     3     3     4   ar
     4     4     8    1
     5     8     9   ar
     6     9    10   ar
     7    10    11   ar
     8    11    12   ar
     9    12    14    1
    10    14    16    1
    11    16    17    1
    12    17    18    1
    13    18    19    1
    14    19    20    1
    15    20    21    1
    16    12    13   ar
    17     4     5   ar
    18     5     6   ar
    19     6     7   ar
    20     7    22    1
    21    22    31    1
    22    31    32    1
    23    22    23    1
    24    23    24   ar
    25    24    25   ar
    26    25    26   ar
    27    26    27    1
    28    26    28   ar
    29    28    29    1
    30    28    30   ar
    31     7     2   ar
    32    30    23   ar
    33    13     8   ar
    34    21    16    1
    35    14    15    1
    36    32    33    1
@<TRIPOS>MOLECULE
*****
 33 36 0 0 0
SMALL
GASTEIGER

@<TRIPOS>ATOM
      1 O         139.8007  137.3620  156.1474 O.2     1  UNL1       -0.2670
      2 C         140.5273  137.7262  157.4081 C.ar    1  UNL1        0.2613
      3 C         139.8060  138.4472  158.5079 C.ar    1  UNL1        0.0623
      4 C         140.5326  138.8114  159.7687 C.ar    1  UNL1        0.0240
      5 C         141.9805  138.4545  159.9296 C.ar    1  UNL1        0.0204
      6 C         142.7019  137.7334  158.8298 C.ar    1  UNL1        0.0787
      7 N         141.9753  137.3693  157.5691 N.ar    1  UNL1       -0.2897
      8 C         139.8111  139.5325  160.8685 C.ar    1  UNL1        0.0859
      9 C         138.4592  140.1300  160.6128 C.ar    1  UNL1        0.0399
     10 C         137.7378  140.8511  161.7126 C.ar    1  UNL1        0.1034
     11 N         138.3682  140.9747  163.0681 N.ar    1  UNL1       -0.2123
     12 C         139.7201  140.3772  163.3238 C.ar    1  UNL1        0.2168
     13 N         140.4415  139.6561  162.2240 N.ar    1  UNL1       -0.2138
     14 N         140.3505  140.5008  164.6792 N.pl3   1  UNL1       -0.3045
     15 H         141.2490  140.8928  164.7703 H       1  UNL1        0.1496
     16 C         139.6120  140.0270  165.8958 C.3     1  UNL1        0.0768
     17 C         138.4611  139.0759  165.7515 C.3     1  UNL1        0.0517
     18 C         137.7226  138.6022  166.9682 C.3     1  UNL1        0.1439
     19 O         138.1350  139.0795  168.3291 O.3     1  UNL1       -0.3537
     20 C         139.2859  140.0306  168.4734 C.3     1  UNL1        0.1439
     21 C         140.0244  140.5043  167.2568 C.3     1  UNL1        0.0517
     22 C         142.6968  136.6481  156.4692 C.3     1  UNL1        0.1402
     23 C         142.6486  135.1507  156.3965 C.ar    1  UNL1        0.0030
     24 C         143.5408  134.3279  157.2780 C.ar    1  UNL1       -0.0014
     25 C         143.4927  132.8305  157.2053 C.ar    1  UNL1        0.0134
     26 C         142.5523  132.1558  156.2511 C.ar    1  UNL1        0.0850
     27 CL        142.5041  130.6583  156.1784 Cl      1  UNL1       -0.0799
     28 C         141.6600  132.9785  155.3697 C.ar    1  UNL1        0.1503
     29 F         140.7197  132.3038  154.4155 F       1  UNL1       -0.2033
     30 C         141.7082  134.4760  155.4423 C.ar    1  UNL1        0.0281
     31 C         143.4664  137.4245  155.4421 C.3     1  UNL1        0.1642
     32 O         144.9279  137.6938  155.6455 O.3     1  UNL1       -0.3797
     33 H         145.0457  138.2770  156.4116 H       1  UNL1        0.2105
@<TRIPOS>BOND
     1     1     2    2
     2     2     3   ar
     3     3     4   ar
     4     4     8    1
     5     8     9   ar
     6     9    10   ar
     7    10    11   ar
     8    11    12   ar
     9    12    14    1
    10    14    16    1
    11    16    17    1
    12    17    18    1
    13    18    19    1
    14    19    20    1
    15    20    21    1
    16    12    13   ar
    17     4     5   ar
    18     5     6   ar
    19     6     7   ar
    20     7    22    1
    21    22    31    1
    22    31    32    1
    23    22    23    1
    24    23    24   ar
    25    24    25   ar
    26    25    26   ar
    27    26    27    1
    28    26    28   ar
    29    28    29    1
    30    28    30   ar
    31     7     2   ar
    32    30    23   ar
    33    13     8   ar
    34    21    16    1
    35    14    15    1
    36    32    33    1
@<TRIPOS>MOLECULE
*****
 33 36 0 0 0
SMALL
GASTEIGER

@<TRIPOS>ATOM
      1 O         139.4059  138.4300  157.5004 O.2     1  UNL1       -0.2670
      2 C         140.2110  138.3076  158.7601 C.ar    1  UNL1        0.2613
      3 C         139.5500  138.4938  160.0937 C.ar    1  UNL1        0.0623
      4 C         140.3551  138.3715  161.3534 C.ar    1  UNL1        0.0240
      5 C         141.8211  138.0629  161.2796 C.ar    1  UNL1        0.0204
      6 C         142.4821  137.8767  159.9460 C.ar    1  UNL1        0.0787
      7 N         141.6770  137.9990  158.6863 N.ar    1  UNL1       -0.2897
      8 C         139.6941  138.5577  162.6870 C.ar    1  UNL1        0.0859
      9 C         139.7338  137.4559  163.7041 C.ar    1  UNL1        0.0399
     10 C         139.0728  137.6421  165.0377 C.ar    1  UNL1        0.1034
     11 N         138.3720  138.9301  165.3542 N.ar    1  UNL1       -0.2123
     12 C         138.3323  140.0319  164.3370 C.ar    1  UNL1        0.2168
     13 N         138.9934  139.8456  163.0034 N.ar    1  UNL1       -0.2138
     14 N         137.6316  141.3198  164.6534 N.pl3   1  UNL1       -0.3045
     15 H         136.7591  141.3064  165.1093 H       1  UNL1        0.1496
     16 C         138.2602  142.6281  164.2752 C.3     1  UNL1        0.0768
     17 C         137.6713  143.4508  163.1678 C.3     1  UNL1        0.0517
     18 C         138.3000  144.7592  162.7896 C.3     1  UNL1        0.1439
     19 O         139.5175  145.2449  163.5189 O.3     1  UNL1       -0.3537
     20 C         140.1064  144.4222  164.6263 C.3     1  UNL1        0.1439
     21 C         139.4778  143.1138  165.0045 C.3     1  UNL1        0.0517
     22 C         142.3381  137.8128  157.3527 C.3     1  UNL1        0.1402
     23 C         142.2984  136.4746  156.6763 C.ar    1  UNL1        0.0030
     24 C         143.0946  135.3303  157.2303 C.ar    1  UNL1       -0.0014
     25 C         143.0550  133.9921  156.5540 C.ar    1  UNL1        0.0134
     26 C         142.2192  133.7980  155.3236 C.ar    1  UNL1        0.0850
     27 CL        142.1795  132.4598  154.6472 Cl      1  UNL1       -0.0799
     28 C         141.4230  134.9422  154.7696 C.ar    1  UNL1        0.1503
     29 F         140.5873  134.7481  153.5392 F       1  UNL1       -0.2033
     30 C         141.4626  136.2805  155.4459 C.ar    1  UNL1        0.0281
     31 C         143.0387  138.9649  156.6955 C.3     1  UNL1        0.1642
     32 O         144.4677  138.8248  156.2618 O.3     1  UNL1       -0.3797
     33 H         145.0332  138.7148  157.0422 H       1  UNL1        0.2105
@<TRIPOS>BOND
     1     1     2    2
     2     2     3   ar
     3     3     4   ar
     4     4     8    1
     5     8     9   ar
     6     9    10   ar
     7    10    11   ar
     8    11    12   ar
     9    12    14    1
    10    14    16    1
    11    16    17    1
    12    17    18    1
    13    18    19    1
    14    19    20    1
    15    20    21    1
    16    12    13   ar
    17     4     5   ar
    18     5     6   ar
    19     6     7   ar
    20     7    22    1
    21    22    31    1
    22    31    32    1
    23    22    23    1
    24    23    24   ar
    25    24    25   ar
    26    25    26   ar
    27    26    27    1
    28    26    28   ar
    29    28    29    1
    30    28    30   ar
    31     7     2   ar
    32    30    23   ar
    33    13     8   ar
    34    21    16    1
    35    14    15    1
    36    32    33    1
@<TRIPOS>MOLECULE
*****
 33 36 0 0 0
SMALL
GASTEIGER

@<TRIPOS>ATOM
      1 O         139.8721  137.7353  156.2030 O.2     1  UNL1       -0.2670
      2 C         140.4824  137.9782  157.5515 C.ar    1  UNL1        0.2613
      3 C         139.6752  138.6329  158.6331 C.ar    1  UNL1        0.0623
      4 C         140.2855  138.8759  159.9816 C.ar    1  UNL1        0.0240
      5 C         141.7029  138.4640  160.2486 C.ar    1  UNL1        0.0204
      6 C         142.5100  137.8092  159.1671 C.ar    1  UNL1        0.0787
      7 N         141.8997  137.5663  157.8186 N.ar    1  UNL1       -0.2897
      8 C         139.4783  139.5307  161.0632 C.ar    1  UNL1        0.0859
      9 C         138.7530  140.8139  160.7852 C.ar    1  UNL1        0.0399
     10 C         137.9459  141.4687  161.8666 C.ar    1  UNL1        0.1034
     11 N         137.8639  140.8403  163.2262 N.ar    1  UNL1       -0.2123
     12 C         138.5892  139.5571  163.5043 C.ar    1  UNL1        0.2168
     13 N         139.3964  138.9022  162.4227 N.ar    1  UNL1       -0.2138
     14 N         138.5073  138.9286  164.8638 N.pl3   1  UNL1       -0.3045
     15 H         137.7728  138.3083  165.0759 H       1  UNL1        0.1496
     16 C         139.5443  139.2454  165.9001 C.3     1  UNL1        0.0768
     17 C         140.9987  139.0482  165.5906 C.3     1  UNL1        0.0517
     18 C         142.0358  139.3650  166.6270 C.3     1  UNL1        0.1439
     19 O         141.6185  139.8790  167.9729 O.3     1  UNL1       -0.3537
     20 C         140.1641  140.0763  168.2825 C.3     1  UNL1        0.1439
     21 C         139.1270  139.7595  167.2462 C.3     1  UNL1        0.0517
     22 C         142.7070  136.9115  156.7370 C.3     1  UNL1        0.1402
     23 C         142.6502  135.4237  156.5553 C.ar    1  UNL1        0.0030
     24 C         141.6808  134.8235  155.5805 C.ar    1  UNL1       -0.0014
     25 C         141.6241  133.3357  155.3988 C.ar    1  UNL1        0.0134
     26 C         142.5368  132.4479  156.1918 C.ar    1  UNL1        0.0850
     27 CL        142.4801  130.9601  156.0100 Cl      1  UNL1       -0.0799
     28 C         143.5062  133.0480  157.1665 C.ar    1  UNL1        0.1503
     29 F         144.4189  132.1602  157.9594 F       1  UNL1       -0.2033
     30 C         143.5630  134.5359  157.3482 C.ar    1  UNL1        0.0281
     31 C         143.5708  137.7446  155.8372 C.3     1  UNL1        0.1642
     32 O         144.8885  137.2114  155.3584 O.3     1  UNL1       -0.3797
     33 H         145.4899  137.1104  156.1127 H       1  UNL1        0.2105
@<TRIPOS>BOND
     1     1     2    2
     2     2     3   ar
     3     3     4   ar
     4     4     8    1
     5     8     9   ar
     6     9    10   ar
     7    10    11   ar
     8    11    12   ar
     9    12    14    1
    10    14    16    1
    11    16    17    1
    12    17    18    1
    13    18    19    1
    14    19    20    1
    15    20    21    1
    16    12    13   ar
    17     4     5   ar
    18     5     6   ar
    19     6     7   ar
    20     7    22    1
    21    22    31    1
    22    31    32    1
    23    22    23    1
    24    23    24   ar
    25    24    25   ar
    26    25    26   ar
    27    26    27    1
    28    26    28   ar
    29    28    29    1
    30    28    30   ar
    31     7     2   ar
    32    30    23   ar
    33    13     8   ar
    34    21    16    1
    35    14    15    1
    36    32    33    1
