@<TRIPOS>MOLECULE
*****
 35 38 0 0 0
SMALL
GASTEIGER

@<TRIPOS>ATOM
      1 C         146.0476  142.1073  156.9737 C.3     1  UNL1        0.1134
      2 N         145.0662  140.9895  156.7808 N.pl3   1  UNL1       -0.2948
      3 C         144.2410  140.5079  157.9372 C.ar    1  UNL1        0.1279
      4 N         144.3972  141.1442  159.2865 N.ar    1  UNL1       -0.2310
      5 C         143.5721  140.6626  160.4428 C.ar    1  UNL1        0.0834
      6 C         142.5907  139.5448  160.2499 C.ar    1  UNL1        0.0175
      7 C         142.4345  138.9085  158.9006 C.ar    1  UNL1        0.0005
      8 C         143.2596  139.3900  157.7442 C.ar    1  UNL1        0.0178
      9 C         143.1034  138.7537  156.3948 C.3     1  UNL1        0.1030
     10 C         143.9286  139.2353  155.2385 C.3     1  UNL1        0.0318
     11 C         144.9100  140.3532  155.4315 C.3     1  UNL1        0.0601
     12 C         145.1199  140.0710  153.9733 C.3     1  UNL1        0.0199
     13 C         145.9642  141.3730  155.1180 C.3     1  UNL1        0.0199
     14 C         143.7283  141.2989  161.7922 C.ar    1  UNL1        0.0283
     15 C         144.7427  140.7657  162.7600 C.ar    1  UNL1        0.0032
     16 C         144.8989  141.4020  164.1094 C.ar    1  UNL1        0.0115
     17 C         144.0407  142.5715  164.4909 C.ar    1  UNL1        0.0585
     18 CL        144.1968  143.2079  165.8403 Cl      1  UNL1       -0.0822
     19 C         143.0263  143.1048  163.5231 C.ar    1  UNL1        0.0228
     20 C         142.8701  142.4685  162.1738 C.ar    1  UNL1        0.0599
     21 CL        141.8557  143.0018  161.2059 Cl      1  UNL1       -0.0822
     22 C         141.7655  139.0632  161.4063 C.ar    1  UNL1        0.0015
     23 C         140.4232  139.6757  161.6764 C.ar    1  UNL1        0.0009
     24 C         139.5980  139.1942  162.8328 C.ar    1  UNL1        0.0114
     25 C         140.1152  138.1001  163.7191 C.ar    1  UNL1        0.0577
     26 CL        139.2901  137.6185  164.8755 Cl      1  UNL1       -0.0822
     27 C         141.4576  137.4875  163.4489 C.ar    1  UNL1        0.0114
     28 C         142.2827  137.9691  162.2926 C.ar    1  UNL1        0.0009
     29 C         142.1220  137.6358  156.2019 C.2     1  UNL1        0.2279
     30 O         142.4127  136.2768  156.7664 O.2     1  UNL1       -0.2747
     31 N         140.8500  137.8769  155.4444 N.am    1  UNL1       -0.2794
     32 H         140.6593  138.7689  155.0739 H       1  UNL1        0.1517
     33 C         139.8686  136.7591  155.2514 C.3     1  UNL1        0.2354
     34 O         138.7026  136.6153  156.1841 O.3     1  UNL1       -0.3641
     35 H         139.0244  136.3973  157.0728 H       1  UNL1        0.2123
@<TRIPOS>BOND
     1     1     2    1
     2     2     3    1
     3     3     4   ar
     4     4     5   ar
     5     5    14    1
     6    14    15   ar
     7    15    16   ar
     8    16    17   ar
     9    17    18    1
    10    17    19   ar
    11    19    20   ar
    12    20    21    1
    13     5     6   ar
    14     6    22    1
    15    22    23   ar
    16    23    24   ar
    17    24    25   ar
    18    25    26    1
    19    25    27   ar
    20    27    28   ar
    21     6     7   ar
    22     7     8   ar
    23     8     9    1
    24     9    29    1
    25    29    30    2
    26    29    31   am
    27    31    33    1
    28    33    34    1
    29     9    10    1
    30    10    11    1
    31    11    12    1
    32    11    13    1
    33    11     2    1
    34     8     3   ar
    35    20    14   ar
    36    28    22   ar
    37    31    32    1
    38    34    35    1
@<TRIPOS>MOLECULE
*****
 35 38 0 0 0
SMALL
GASTEIGER

@<TRIPOS>ATOM
      1 C         139.9519  145.9571  157.1021 C.3     1  UNL1        0.1134
      2 N         140.1350  144.4845  156.8831 N.pl3   1  UNL1       -0.2948
      3 C         140.0218  143.5346  158.0385 C.ar    1  UNL1        0.1279
      4 N         139.7255  144.0573  159.4129 N.ar    1  UNL1       -0.2310
      5 C         139.6123  143.1075  160.5682 C.ar    1  UNL1        0.0834
      6 C         139.7954  141.6349  160.3492 C.ar    1  UNL1        0.0175
      7 C         140.0917  141.1122  158.9749 C.ar    1  UNL1        0.0005
      8 C         140.2049  142.0620  157.8195 C.ar    1  UNL1        0.0178
      9 C         140.5013  141.5393  156.4450 C.3     1  UNL1        0.1030
     10 C         140.6145  142.4892  155.2897 C.3     1  UNL1        0.0318
     11 C         140.4314  143.9618  155.5087 C.3     1  UNL1        0.0601
     12 C         140.6960  143.9489  154.0323 C.3     1  UNL1        0.0199
     13 C         140.3402  145.4299  155.2150 C.3     1  UNL1        0.0199
     14 C         139.3159  143.6302  161.9427 C.ar    1  UNL1        0.0283
     15 C         137.9126  143.5965  162.4714 C.ar    1  UNL1        0.0032
     16 C         137.6163  144.1192  163.8459 C.ar    1  UNL1        0.0115
     17 C         138.7233  144.6756  164.6915 C.ar    1  UNL1        0.0585
     18 CL        138.4270  145.1983  166.0659 Cl      1  UNL1       -0.0822
     19 C         140.1266  144.7092  164.1627 C.ar    1  UNL1        0.0228
     20 C         140.4229  144.1865  162.7883 C.ar    1  UNL1        0.0599
     21 CL        141.8262  144.2202  162.2594 Cl      1  UNL1       -0.0822
     22 C         139.6821  140.6850  161.5047 C.ar    1  UNL1        0.0015
     23 C         138.3960  139.9536  161.7510 C.ar    1  UNL1        0.0009
     24 C         138.2827  139.0037  162.9065 C.ar    1  UNL1        0.0114
     25 C         139.4557  138.7853  163.8155 C.ar    1  UNL1        0.0577
     26 CL        139.3425  137.8355  164.9709 Cl      1  UNL1       -0.0822
     27 C         140.7419  139.5168  163.5691 C.ar    1  UNL1        0.0114
     28 C         140.8551  140.4666  162.4137 C.ar    1  UNL1        0.0009
     29 C         140.6844  140.0667  156.2260 C.2     1  UNL1        0.2279
     30 O         142.0315  139.4397  156.4317 O.2     1  UNL1       -0.2747
     31 N         139.5205  139.2212  155.8014 N.am    1  UNL1       -0.2794
     32 H         138.6364  139.6328  155.6664 H       1  UNL1        0.1517
     33 C         139.7036  137.7486  155.5824 C.3     1  UNL1        0.2354
     34 O         138.7066  136.7775  156.1420 O.3     1  UNL1       -0.3641
     35 H         138.7394  136.8028  157.1111 H       1  UNL1        0.2123
@<TRIPOS>BOND
     1     1     2    1
     2     2     3    1
     3     3     4   ar
     4     4     5   ar
     5     5    14    1
     6    14    15   ar
     7    15    16   ar
     8    16    17   ar
     9    17    18    1
    10    17    19   ar
    11    19    20   ar
    12    20    21    1
    13     5     6   ar
    14     6    22    1
    15    22    23   ar
    16    23    24   ar
    17    24    25   ar
    18    25    26    1
    19    25    27   ar
    20    27    28   ar
    21     6     7   ar
    22     7     8   ar
    23     8     9    1
    24     9    29    1
    25    29    30    2
    26    29    31   am
    27    31    33    1
    28    33    34    1
    29     9    10    1
    30    10    11    1
    31    11    12    1
    32    11    13    1
    33    11     2    1
    34     8     3   ar
    35    20    14   ar
    36    28    22   ar
    37    31    32    1
    38    34    35    1
@<TRIPOS>MOLECULE
*****
 35 38 0 0 0
SMALL
GASTEIGER

@<TRIPOS>ATOM
      1 C         139.1085  137.3365  155.5663 C.3     1  UNL1        0.1134
      2 N         138.8142  138.8073  155.5825 N.pl3   1  UNL1       -0.2948
      3 C         138.9307  139.5814  156.8621 C.ar    1  UNL1        0.1279
      4 N         139.3415  138.8847  158.1254 N.ar    1  UNL1       -0.2310
      5 C         139.4579  139.6588  159.4049 C.ar    1  UNL1        0.0834
      6 C         139.1636  141.1296  159.4211 C.ar    1  UNL1        0.0175
      7 C         138.7528  141.8262  158.1579 C.ar    1  UNL1        0.0005
      8 C         138.6363  141.0521  156.8784 C.ar    1  UNL1        0.0178
      9 C         138.2255  141.7488  155.6150 C.3     1  UNL1        0.1030
     10 C         138.1091  140.9747  154.3355 C.3     1  UNL1        0.0318
     11 C         138.4034  139.5039  154.3193 C.3     1  UNL1        0.0601
     12 C         138.0525  139.7153  152.8763 C.3     1  UNL1        0.0199
     13 C         138.5759  138.1066  153.8019 C.3     1  UNL1        0.0199
     14 C         139.8687  138.9621  160.6682 C.ar    1  UNL1        0.0283
     15 C         141.3233  138.7708  160.9802 C.ar    1  UNL1        0.0032
     16 C         141.7341  138.0741  162.2436 C.ar    1  UNL1        0.0115
     17 C         140.6902  137.5689  163.1949 C.ar    1  UNL1        0.0585
     18 CL        141.1010  136.8722  164.4582 Cl      1  UNL1       -0.0822
     19 C         139.2355  137.7603  162.8828 C.ar    1  UNL1        0.0228
     20 C         138.8248  138.4569  161.6196 C.ar    1  UNL1        0.0599
     21 CL        137.3701  138.6483  161.3075 Cl      1  UNL1       -0.0822
     22 C         139.2801  141.9036  160.7007 C.ar    1  UNL1        0.0015
     23 C         138.0632  142.1474  161.5432 C.ar    1  UNL1        0.0009
     24 C         138.1797  142.9215  162.8228 C.ar    1  UNL1        0.0114
     25 C         139.5130  143.4518  163.2599 C.ar    1  UNL1        0.0577
     26 CL        139.6296  144.2258  164.5394 Cl      1  UNL1       -0.0822
     27 C         140.7299  143.2079  162.4173 C.ar    1  UNL1        0.0114
     28 C         140.6134  142.4339  161.1378 C.ar    1  UNL1        0.0009
     29 C         137.9312  143.2195  155.6313 C.2     1  UNL1        0.2279
     30 O         136.5226  143.7005  155.8173 O.2     1  UNL1       -0.2747
     31 N         139.0454  144.2093  155.4615 N.am    1  UNL1       -0.2794
     32 H         139.9699  143.8936  155.3393 H       1  UNL1        0.1517
     33 C         138.7511  145.6801  155.4777 C.3     1  UNL1        0.2354
     34 O         137.5819  146.2195  154.7081 O.3     1  UNL1       -0.3641
     35 H         137.7348  146.0950  153.7584 H       1  UNL1        0.2123
@<TRIPOS>BOND
     1     1     2    1
     2     2     3    1
     3     3     4   ar
     4     4     5   ar
     5     5    14    1
     6    14    15   ar
     7    15    16   ar
     8    16    17   ar
     9    17    18    1
    10    17    19   ar
    11    19    20   ar
    12    20    21    1
    13     5     6   ar
    14     6    22    1
    15    22    23   ar
    16    23    24   ar
    17    24    25   ar
    18    25    26    1
    19    25    27   ar
    20    27    28   ar
    21     6     7   ar
    22     7     8   ar
    23     8     9    1
    24     9    29    1
    25    29    30    2
    26    29    31   am
    27    31    33    1
    28    33    34    1
    29     9    10    1
    30    10    11    1
    31    11    12    1
    32    11    13    1
    33    11     2    1
    34     8     3   ar
    35    20    14   ar
    36    28    22   ar
    37    31    32    1
    38    34    35    1
@<TRIPOS>MOLECULE
*****
 35 38 0 0 0
SMALL
GASTEIGER

@<TRIPOS>ATOM
      1 C         141.2471  145.4802  155.8889 C.3     1  UNL1        0.1134
      2 N         140.1421  144.4777  156.0437 N.pl3   1  UNL1       -0.2948
      3 C         139.8687  143.8639  157.3848 C.ar    1  UNL1        0.1279
      4 N         140.7002  144.2527  158.5711 N.ar    1  UNL1       -0.2310
      5 C         140.4267  143.6389  159.9122 C.ar    1  UNL1        0.0834
      6 C         139.3217  142.6364  160.0669 C.ar    1  UNL1        0.0175
      7 C         138.4902  142.2476  158.8806 C.ar    1  UNL1        0.0005
      8 C         138.7637  142.8614  157.5396 C.ar    1  UNL1        0.0178
      9 C         137.9321  142.4726  156.3532 C.3     1  UNL1        0.1030
     10 C         138.2056  143.0864  155.0121 C.3     1  UNL1        0.0318
     11 C         139.3106  144.0889  154.8574 C.3     1  UNL1        0.0601
     12 C         138.8014  144.0428  153.4472 C.3     1  UNL1        0.0199
     13 C         140.2387  145.0754  154.2129 C.3     1  UNL1        0.0199
     14 C         141.2583  144.0276  161.0986 C.ar    1  UNL1        0.0283
     15 C         142.5532  143.3212  161.3708 C.ar    1  UNL1        0.0032
     16 C         143.3847  143.7099  162.5572 C.ar    1  UNL1        0.0115
     17 C         142.9213  144.8052  163.4714 C.ar    1  UNL1        0.0585
     18 CL        143.7528  145.1939  164.6577 Cl      1  UNL1       -0.0822
     19 C         141.6263  145.5116  163.1991 C.ar    1  UNL1        0.0228
     20 C         140.7949  145.1229  162.0128 C.ar    1  UNL1        0.0599
     21 CL        139.4999  145.8294  161.7405 Cl      1  UNL1       -0.0822
     22 C         139.0483  142.0226  161.4081 C.ar    1  UNL1        0.0015
     23 C         137.9745  142.5906  162.2880 C.ar    1  UNL1        0.0009
     24 C         137.7011  141.9768  163.6291 C.ar    1  UNL1        0.0114
     25 C         138.5015  140.7950  164.0903 C.ar    1  UNL1        0.0577
     26 CL        138.2281  140.1813  165.4313 Cl      1  UNL1       -0.0822
     27 C         139.5753  140.2270  163.2103 C.ar    1  UNL1        0.0114
     28 C         139.8487  140.8408  161.8693 C.ar    1  UNL1        0.0009
     29 C         136.8271  141.4701  156.5079 C.2     1  UNL1        0.2279
     30 O         137.0734  140.1914  157.2524 O.2     1  UNL1       -0.2747
     31 N         135.4759  141.7463  155.9182 N.am    1  UNL1       -0.2794
     32 H         135.3143  142.5855  155.4295 H       1  UNL1        0.1517
     33 C         134.3709  140.7437  156.0729 C.3     1  UNL1        0.2354
     34 O         134.3750  139.7966  157.2361 O.3     1  UNL1       -0.3641
     35 H         135.1314  139.1940  157.1598 H       1  UNL1        0.2123
@<TRIPOS>BOND
     1     1     2    1
     2     2     3    1
     3     3     4   ar
     4     4     5   ar
     5     5    14    1
     6    14    15   ar
     7    15    16   ar
     8    16    17   ar
     9    17    18    1
    10    17    19   ar
    11    19    20   ar
    12    20    21    1
    13     5     6   ar
    14     6    22    1
    15    22    23   ar
    16    23    24   ar
    17    24    25   ar
    18    25    26    1
    19    25    27   ar
    20    27    28   ar
    21     6     7   ar
    22     7     8   ar
    23     8     9    1
    24     9    29    1
    25    29    30    2
    26    29    31   am
    27    31    33    1
    28    33    34    1
    29     9    10    1
    30    10    11    1
    31    11    12    1
    32    11    13    1
    33    11     2    1
    34     8     3   ar
    35    20    14   ar
    36    28    22   ar
    37    31    32    1
    38    34    35    1
@<TRIPOS>MOLECULE
*****
 35 38 0 0 0
SMALL
GASTEIGER

@<TRIPOS>ATOM
      1 C         141.1202  137.0470  156.6247 C.3     1  UNL1        0.1134
      2 N         142.1078  138.1716  156.7243 N.pl3   1  UNL1       -0.2948
      3 C         142.3477  138.8443  158.0434 C.ar    1  UNL1        0.1279
      4 N         141.6002  138.3924  159.2628 N.ar    1  UNL1       -0.2310
      5 C         141.8402  139.0651  160.5818 C.ar    1  UNL1        0.0834
      6 C         142.8277  140.1897  160.6815 C.ar    1  UNL1        0.0175
      7 C         143.5753  140.6417  159.4621 C.ar    1  UNL1        0.0005
      8 C         143.3353  139.9690  158.1431 C.ar    1  UNL1        0.0178
      9 C         144.0828  140.4209  156.9236 C.3     1  UNL1        0.1030
     10 C         143.8428  139.7483  155.6046 C.3     1  UNL1        0.0318
     11 C         142.8553  138.6236  155.5050 C.3     1  UNL1        0.0601
     12 C         143.3154  138.6934  154.0790 C.3     1  UNL1        0.0199
     13 C         142.0276  137.5232  154.9101 C.3     1  UNL1        0.0199
     14 C         141.0926  138.6131  161.8012 C.ar    1  UNL1        0.0283
     15 C         141.7240  137.6371  162.7491 C.ar    1  UNL1        0.0032
     16 C         140.9765  137.1851  163.9686 C.ar    1  UNL1        0.0115
     17 C         139.5975  137.7093  164.2401 C.ar    1  UNL1        0.0585
     18 CL        138.8500  137.2574  165.4594 Cl      1  UNL1       -0.0822
     19 C         138.9661  138.6854  163.2921 C.ar    1  UNL1        0.0228
     20 C         139.7137  139.1373  162.0727 C.ar    1  UNL1        0.0599
     21 CL        139.0822  140.1134  161.1247 Cl      1  UNL1       -0.0822
     22 C         143.0677  140.8624  162.0006 C.ar    1  UNL1        0.0015
     23 C         144.2034  140.4177  162.8736 C.ar    1  UNL1        0.0009
     24 C         144.4434  141.0904  164.1927 C.ar    1  UNL1        0.0114
     25 C         143.5476  142.2078  164.6387 C.ar    1  UNL1        0.0577
     26 CL        143.7875  142.8805  165.9577 Cl      1  UNL1       -0.0822
     27 C         142.4118  142.6526  163.7655 C.ar    1  UNL1        0.0114
     28 C         142.1719  141.9799  162.4465 C.ar    1  UNL1        0.0009
     29 C         145.0704  141.5456  157.0233 C.2     1  UNL1        0.2279
     30 O         144.6749  142.8349  157.6801 O.2     1  UNL1       -0.2747
     31 N         146.4533  141.3810  156.4662 N.am    1  UNL1       -0.2794
     32 H         146.7128  140.5348  156.0352 H       1  UNL1        0.1517
     33 C         147.4408  142.5056  156.5659 C.3     1  UNL1        0.2354
     34 O         147.4319  143.4075  157.7645 O.3     1  UNL1       -0.3641
     35 H         146.6055  143.9152  157.7810 H       1  UNL1        0.2123
@<TRIPOS>BOND
     1     1     2    1
     2     2     3    1
     3     3     4   ar
     4     4     5   ar
     5     5    14    1
     6    14    15   ar
     7    15    16   ar
     8    16    17   ar
     9    17    18    1
    10    17    19   ar
    11    19    20   ar
    12    20    21    1
    13     5     6   ar
    14     6    22    1
    15    22    23   ar
    16    23    24   ar
    17    24    25   ar
    18    25    26    1
    19    25    27   ar
    20    27    28   ar
    21     6     7   ar
    22     7     8   ar
    23     8     9    1
    24     9    29    1
    25    29    30    2
    26    29    31   am
    27    31    33    1
    28    33    34    1
    29     9    10    1
    30    10    11    1
    31    11    12    1
    32    11    13    1
    33    11     2    1
    34     8     3   ar
    35    20    14   ar
    36    28    22   ar
    37    31    32    1
    38    34    35    1
@<TRIPOS>MOLECULE
*****
 35 38 0 0 0
SMALL
GASTEIGER

@<TRIPOS>ATOM
      1 C         135.0763  139.9932  155.4894 C.3     1  UNL1        0.1134
      2 N         135.9323  141.2118  155.3096 N.pl3   1  UNL1       -0.2948
      3 C         136.9622  141.5639  156.3418 C.ar    1  UNL1        0.1279
      4 N         137.1362  140.6974  157.5537 N.ar    1  UNL1       -0.2310
      5 C         138.1660  141.0495  158.5858 C.ar    1  UNL1        0.0834
      6 C         139.0220  142.2681  158.4060 C.ar    1  UNL1        0.0175
      7 C         138.8481  143.1346  157.1940 C.ar    1  UNL1        0.0005
      8 C         137.8182  142.7825  156.1619 C.ar    1  UNL1        0.0178
      9 C         137.6442  143.6490  154.9499 C.3     1  UNL1        0.1030
     10 C         136.6143  143.2969  153.9178 C.3     1  UNL1        0.0318
     11 C         135.7584  142.0783  154.0976 C.3     1  UNL1        0.0601
     12 C         135.2226  142.5824  152.7904 C.3     1  UNL1        0.0199
     13 C         134.7164  141.0348  153.8235 C.3     1  UNL1        0.0199
     14 C         138.3400  140.1830  159.7979 C.ar    1  UNL1        0.0283
     15 C         137.6388  140.5328  161.0769 C.ar    1  UNL1        0.0032
     16 C         137.8128  139.6663  162.2889 C.ar    1  UNL1        0.0115
     17 C         138.6880  138.4500  162.2219 C.ar    1  UNL1        0.0585
     18 CL        138.8620  137.5835  163.4338 Cl      1  UNL1       -0.0822
     19 C         139.3892  138.1001  160.9428 C.ar    1  UNL1        0.0228
     20 C         139.2152  138.9666  159.7309 C.ar    1  UNL1        0.0599
     21 CL        139.9165  138.6168  158.4518 Cl      1  UNL1       -0.0822
     22 C         140.0519  142.6202  159.4382 C.ar    1  UNL1        0.0015
     23 C         141.4164  142.0000  159.3782 C.ar    1  UNL1        0.0009
     24 C         142.4463  142.3521  160.4104 C.ar    1  UNL1        0.0114
     25 C         142.1117  143.3244  161.5026 C.ar    1  UNL1        0.0577
     26 CL        143.1416  143.6765  162.5347 Cl      1  UNL1       -0.0822
     27 C         140.7472  143.9446  161.5625 C.ar    1  UNL1        0.0114
     28 C         139.7173  143.5925  160.5303 C.ar    1  UNL1        0.0009
     29 C         138.5002  144.8676  154.7700 C.2     1  UNL1        0.2279
     30 O         139.8956  144.7319  154.2367 O.2     1  UNL1       -0.2747
     31 N         137.9608  146.2218  155.1235 N.am    1  UNL1       -0.2794
     32 H         137.0449  146.3109  155.4735 H       1  UNL1        0.1517
     33 C         138.8167  147.4404  154.9436 C.3     1  UNL1        0.2354
     34 O         140.2027  147.4747  155.5166 O.3     1  UNL1       -0.3641
     35 H         140.1528  147.4528  156.4850 H       1  UNL1        0.2123
@<TRIPOS>BOND
     1     1     2    1
     2     2     3    1
     3     3     4   ar
     4     4     5   ar
     5     5    14    1
     6    14    15   ar
     7    15    16   ar
     8    16    17   ar
     9    17    18    1
    10    17    19   ar
    11    19    20   ar
    12    20    21    1
    13     5     6   ar
    14     6    22    1
    15    22    23   ar
    16    23    24   ar
    17    24    25   ar
    18    25    26    1
    19    25    27   ar
    20    27    28   ar
    21     6     7   ar
    22     7     8   ar
    23     8     9    1
    24     9    29    1
    25    29    30    2
    26    29    31   am
    27    31    33    1
    28    33    34    1
    29     9    10    1
    30    10    11    1
    31    11    12    1
    32    11    13    1
    33    11     2    1
    34     8     3   ar
    35    20    14   ar
    36    28    22   ar
    37    31    32    1
    38    34    35    1
@<TRIPOS>MOLECULE
*****
 35 38 0 0 0
SMALL
GASTEIGER

@<TRIPOS>ATOM
      1 C         139.7169  146.6176  156.5848 C.3     1  UNL1        0.1134
      2 N         140.8448  145.6747  156.2870 N.pl3   1  UNL1       -0.2948
      3 C         141.4295  144.8346  157.3836 C.ar    1  UNL1        0.1279
      4 N         140.8863  144.9375  158.7780 N.ar    1  UNL1       -0.2310
      5 C         141.4710  144.0975  159.8745 C.ar    1  UNL1        0.0834
      6 C         142.5988  143.1546  159.5767 C.ar    1  UNL1        0.0175
      7 C         143.1420  143.0516  158.1823 C.ar    1  UNL1        0.0005
      8 C         142.5574  143.8917  157.0858 C.ar    1  UNL1        0.0178
      9 C         143.1006  143.7888  155.6913 C.3     1  UNL1        0.1030
     10 C         142.5159  144.6288  154.5948 C.3     1  UNL1        0.0318
     11 C         141.3880  145.5718  154.8926 C.3     1  UNL1        0.0601
     12 C         141.5603  145.8271  153.4246 C.3     1  UNL1        0.0199
     13 C         140.3200  146.6034  154.6806 C.3     1  UNL1        0.0199
     14 C         140.9278  144.2004  161.2689 C.ar    1  UNL1        0.0283
     15 C         141.6464  145.0257  162.2948 C.ar    1  UNL1        0.0032
     16 C         141.1032  145.1286  163.6892 C.ar    1  UNL1        0.0115
     17 C         139.8414  144.4062  164.0578 C.ar    1  UNL1        0.0585
     18 CL        139.2982  144.5090  165.4521 Cl      1  UNL1       -0.0822
     19 C         139.1227  143.5808  163.0318 C.ar    1  UNL1        0.0228
     20 C         139.6659  143.4779  161.6375 C.ar    1  UNL1        0.0599
     21 CL        138.9473  142.6526  160.6116 Cl      1  UNL1       -0.0822
     22 C         143.1835  142.3145  160.6733 C.ar    1  UNL1        0.0015
     23 C         144.4371  142.7557  161.3688 C.ar    1  UNL1        0.0009
     24 C         145.0218  141.9157  162.4655 C.ar    1  UNL1        0.0114
     25 C         144.3528  140.6344  162.8665 C.ar    1  UNL1        0.0577
     26 CL        144.9374  139.7943  163.9630 Cl      1  UNL1       -0.0822
     27 C         143.0992  140.1932  162.1709 C.ar    1  UNL1        0.0114
     28 C         142.5146  141.0332  161.0743 C.ar    1  UNL1        0.0009
     29 C         144.2284  142.8458  155.3935 C.2     1  UNL1        0.2279
     30 O         143.9450  141.3959  155.1334 O.2     1  UNL1       -0.2747
     31 N         145.6397  143.3527  155.3557 N.am    1  UNL1       -0.2794
     32 H         145.8257  144.3042  155.5264 H       1  UNL1        0.1517
     33 C         146.7676  142.4097  155.0579 C.3     1  UNL1        0.2354
     34 O         146.8694  141.1062  155.7933 O.3     1  UNL1       -0.3641
     35 H         147.0445  141.2774  156.7319 H       1  UNL1        0.2123
@<TRIPOS>BOND
     1     1     2    1
     2     2     3    1
     3     3     4   ar
     4     4     5   ar
     5     5    14    1
     6    14    15   ar
     7    15    16   ar
     8    16    17   ar
     9    17    18    1
    10    17    19   ar
    11    19    20   ar
    12    20    21    1
    13     5     6   ar
    14     6    22    1
    15    22    23   ar
    16    23    24   ar
    17    24    25   ar
    18    25    26    1
    19    25    27   ar
    20    27    28   ar
    21     6     7   ar
    22     7     8   ar
    23     8     9    1
    24     9    29    1
    25    29    30    2
    26    29    31   am
    27    31    33    1
    28    33    34    1
    29     9    10    1
    30    10    11    1
    31    11    12    1
    32    11    13    1
    33    11     2    1
    34     8     3   ar
    35    20    14   ar
    36    28    22   ar
    37    31    32    1
    38    34    35    1
@<TRIPOS>MOLECULE
*****
 35 38 0 0 0
SMALL
GASTEIGER

@<TRIPOS>ATOM
      1 C         137.8921  138.8145  154.9845 C.3     1  UNL1        0.1134
      2 N         139.1352  138.0464  155.3230 N.pl3   1  UNL1       -0.2948
      3 C         139.8030  138.2478  156.6511 C.ar    1  UNL1        0.1279
      4 N         139.2276  139.2173  157.6405 N.ar    1  UNL1       -0.2310
      5 C         139.8954  139.4187  158.9684 C.ar    1  UNL1        0.0834
      6 C         141.1385  138.6505  159.3070 C.ar    1  UNL1        0.0175
      7 C         141.7139  137.6810  158.3176 C.ar    1  UNL1        0.0005
      8 C         141.0461  137.4796  156.9896 C.ar    1  UNL1        0.0178
      9 C         141.6215  136.5101  156.0001 C.3     1  UNL1        0.1030
     10 C         140.9537  136.3087  154.6722 C.3     1  UNL1        0.0318
     11 C         139.7106  137.0768  154.3336 C.3     1  UNL1        0.0601
     12 C         139.8740  136.2777  153.0748 C.3     1  UNL1        0.0199
     13 C         138.5243  137.5674  153.5579 C.3     1  UNL1        0.0199
     14 C         139.3200  140.3882  159.9579 C.ar    1  UNL1        0.0283
     15 C         139.6598  141.8462  159.8639 C.ar    1  UNL1        0.0032
     16 C         139.0845  142.8157  160.8534 C.ar    1  UNL1        0.0115
     17 C         138.1693  142.3272  161.9368 C.ar    1  UNL1        0.0585
     18 CL        137.5940  143.2967  162.9263 Cl      1  UNL1       -0.0822
     19 C         137.8295  140.8692  162.0308 C.ar    1  UNL1        0.0228
     20 C         138.4049  139.8997  161.0414 C.ar    1  UNL1        0.0599
     21 CL        138.0651  138.4417  161.1354 Cl      1  UNL1       -0.0822
     22 C         141.8063  138.8520  160.6350 C.ar    1  UNL1        0.0015
     23 C         141.5347  137.9012  161.7629 C.ar    1  UNL1        0.0009
     24 C         142.2024  138.1026  163.0910 C.ar    1  UNL1        0.0114
     25 C         143.1418  139.2548  163.2910 C.ar    1  UNL1        0.0577
     26 CL        143.8095  139.4563  164.6189 Cl      1  UNL1       -0.0822
     27 C         143.4134  140.2056  162.1630 C.ar    1  UNL1        0.0114
     28 C         142.7456  140.0042  160.8350 C.ar    1  UNL1        0.0009
     29 C         142.8646  135.7420  156.3387 C.2     1  UNL1        0.2279
     30 O         144.2124  136.3174  156.0185 O.2     1  UNL1       -0.2747
     31 N         142.7600  134.3985  156.9975 N.am    1  UNL1       -0.2794
     32 H         141.8755  134.0208  157.2076 H       1  UNL1        0.1517
     33 C         144.0032  133.6303  157.3360 C.3     1  UNL1        0.2354
     34 O         144.9193  133.1664  156.2425 O.3     1  UNL1       -0.3641
     35 H         144.4637  132.5059  155.6975 H       1  UNL1        0.2123
@<TRIPOS>BOND
     1     1     2    1
     2     2     3    1
     3     3     4   ar
     4     4     5   ar
     5     5    14    1
     6    14    15   ar
     7    15    16   ar
     8    16    17   ar
     9    17    18    1
    10    17    19   ar
    11    19    20   ar
    12    20    21    1
    13     5     6   ar
    14     6    22    1
    15    22    23   ar
    16    23    24   ar
    17    24    25   ar
    18    25    26    1
    19    25    27   ar
    20    27    28   ar
    21     6     7   ar
    22     7     8   ar
    23     8     9    1
    24     9    29    1
    25    29    30    2
    26    29    31   am
    27    31    33    1
    28    33    34    1
    29     9    10    1
    30    10    11    1
    31    11    12    1
    32    11    13    1
    33    11     2    1
    34     8     3   ar
    35    20    14   ar
    36    28    22   ar
    37    31    32    1
    38    34    35    1
@<TRIPOS>MOLECULE
*****
 35 38 0 0 0
SMALL
GASTEIGER

@<TRIPOS>ATOM
      1 C         141.3860  145.8554  157.8996 C.3     1  UNL1        0.1134
      2 N         140.3828  144.7671  157.6566 N.pl3   1  UNL1       -0.2948
      3 C         140.1501  143.7149  158.7002 C.ar    1  UNL1        0.1279
      4 N         140.9206  143.7512  159.9867 N.ar    1  UNL1       -0.2310
      5 C         140.6879  142.6992  161.0301 C.ar    1  UNL1        0.0834
      6 C         139.6846  141.6108  160.7872 C.ar    1  UNL1        0.0175
      7 C         138.9142  141.5745  159.5007 C.ar    1  UNL1        0.0005
      8 C         139.1469  142.6266  158.4573 C.ar    1  UNL1        0.0178
      9 C         138.3764  142.5903  157.1707 C.3     1  UNL1        0.1030
     10 C         138.6091  143.6424  156.1272 C.3     1  UNL1        0.0318
     11 C         139.6123  144.7308  156.3702 C.3     1  UNL1        0.0601
     12 C         139.1323  145.1193  155.0032 C.3     1  UNL1        0.0199
     13 C         140.4488  145.9541  156.1384 C.3     1  UNL1        0.0199
     14 C         141.4584  142.7354  162.3167 C.ar    1  UNL1        0.0283
     15 C         140.9322  143.5162  163.4843 C.ar    1  UNL1        0.0032
     16 C         141.7027  143.5525  164.7708 C.ar    1  UNL1        0.0115
     17 C         142.9994  142.8079  164.8896 C.ar    1  UNL1        0.0585
     18 CL        143.7699  142.8441  166.1761 Cl      1  UNL1       -0.0822
     19 C         143.5256  142.0270  163.7219 C.ar    1  UNL1        0.0228
     20 C         142.7551  141.9908  162.4355 C.ar    1  UNL1        0.0599
     21 CL        143.2812  141.2099  161.2678 Cl      1  UNL1       -0.0822
     22 C         139.4520  140.5587  161.8308 C.ar    1  UNL1        0.0015
     23 C         140.1903  139.2550  161.7591 C.ar    1  UNL1        0.0009
     24 C         139.9576  138.2028  162.8026 C.ar    1  UNL1        0.0114
     25 C         138.9865  138.4545  163.9179 C.ar    1  UNL1        0.0577
     26 CL        138.7538  137.4025  164.9614 Cl      1  UNL1       -0.0822
     27 C         138.2482  139.7583  163.9895 C.ar    1  UNL1        0.0114
     28 C         138.4809  140.8103  162.9460 C.ar    1  UNL1        0.0009
     29 C         137.3732  141.5020  156.9278 C.2     1  UNL1        0.2279
     30 O         137.7128  140.0801  157.2643 O.2     1  UNL1       -0.2747
     31 N         136.0304  141.8354  156.3484 N.am    1  UNL1       -0.2794
     32 H         135.8075  142.7685  156.1275 H       1  UNL1        0.1517
     33 C         135.0272  140.7470  156.1054 C.3     1  UNL1        0.2354
     34 O         134.6357  139.8249  157.2220 O.3     1  UNL1       -0.3641
     35 H         135.4002  139.2864  157.4797 H       1  UNL1        0.2123
@<TRIPOS>BOND
     1     1     2    1
     2     2     3    1
     3     3     4   ar
     4     4     5   ar
     5     5    14    1
     6    14    15   ar
     7    15    16   ar
     8    16    17   ar
     9    17    18    1
    10    17    19   ar
    11    19    20   ar
    12    20    21    1
    13     5     6   ar
    14     6    22    1
    15    22    23   ar
    16    23    24   ar
    17    24    25   ar
    18    25    26    1
    19    25    27   ar
    20    27    28   ar
    21     6     7   ar
    22     7     8   ar
    23     8     9    1
    24     9    29    1
    25    29    30    2
    26    29    31   am
    27    31    33    1
    28    33    34    1
    29     9    10    1
    30    10    11    1
    31    11    12    1
    32    11    13    1
    33    11     2    1
    34     8     3   ar
    35    20    14   ar
    36    28    22   ar
    37    31    32    1
    38    34    35    1
