@<TRIPOS>MOLECULE
*****
 35 40 0 0 0
SMALL
GASTEIGER

@<TRIPOS>ATOM
      1 C         144.1030  141.9297  158.7824 C.ar    1  UNL1        0.2227
      2 N         145.0437  142.5015  157.7635 N.ar    1  UNL1       -0.1986
      3 C         145.4120  141.7007  156.5499 C.ar    1  UNL1        0.1376
      4 C         144.8395  140.3280  156.3550 C.ar    1  UNL1        0.0676
      5 C         145.2077  139.5272  155.1413 C.ar    1  UNL1        0.0074
      6 C         144.6352  138.1545  154.9464 C.ar    1  UNL1        0.0193
      7 C         143.6945  137.5827  155.9653 C.ar    1  UNL1        0.0827
      8 N         143.3262  138.3835  157.1789 N.ar    1  UNL1       -0.2264
      9 C         143.8987  139.7561  157.3738 C.ar    1  UNL1        0.1678
     10 N         143.5305  140.5570  158.5875 N.ar    1  UNL1       -0.1944
     11 C         143.1220  136.2099  155.7704 C.2     1  UNL1        0.0140
     12 C         141.9431  136.0107  154.8645 C.2     1  UNL1       -0.0183
     13 C         141.3706  134.6380  154.6696 C.3     1  UNL1        0.0720
     14 C         141.9770  133.4646  155.3805 C.2     1  UNL1        0.0693
     15 N         141.4045  132.0919  155.1856 N.2     1  UNL1       -0.2301
     16 C         142.0109  130.9185  155.8965 C.2     1  UNL1        0.1880
     17 N         143.1897  131.1178  156.8023 N.am    1  UNL1       -0.1537
     18 C         143.7623  132.4904  156.9972 C.2     1  UNL1        0.2715
     19 O         144.9411  132.6897  157.9031 O.2     1  UNL1       -0.2679
     20 C         143.1559  133.6638  156.2863 C.2     1  UNL1        0.0694
     21 C         143.7284  135.0366  156.4813 C.2     1  UNL1        0.0070
     22 C         141.5365  143.4822  158.8332 C.3     1  UNL1        0.0242
     23 C         142.4515  143.5068  160.0215 C.3     1  UNL1        0.1052
     24 C         142.0834  144.3076  161.2352 C.3     1  UNL1        0.1619
     25 O         142.9984  144.3322  162.4235 O.3     1  UNL1       -0.3502
     26 C         144.2817  143.5560  162.3981 C.3     1  UNL1        0.1637
     27 C         144.6499  142.7552  161.1844 C.3     1  UNL1        0.1256
     28 N         143.7348  142.7306  159.9961 N.pl3   1  UNL1       -0.2747
     29 N         146.3527  142.2726  155.5310 N.pl3   1  UNL1       -0.2897
     30 C         147.8169  141.9541  155.6000 C.3     1  UNL1        0.1242
     31 C         148.7576  142.5260  154.5812 C.3     1  UNL1        0.1636
     32 O         148.2342  143.4163  153.4934 O.3     1  UNL1       -0.3502
     33 C         146.7700  143.7348  153.4244 C.3     1  UNL1        0.1618
     34 C         145.8292  143.1630  154.4432 C.3     1  UNL1        0.1038
     35 C         144.3651  143.4814  154.3742 C.3     1  UNL1        0.0241
@<TRIPOS>BOND
     1    23    22    1
     2    23    24    1
     3    24    25    1
     4    25    26    1
     5    26    27    1
     6    27    28    1
     7    28     1    1
     8     1     2   ar
     9     2     3   ar
    10     3    29    1
    11    29    30    1
    12    30    31    1
    13    31    32    1
    14    32    33    1
    15    33    34    1
    16    34    35    1
    17     3     4   ar
    18     4     5   ar
    19     5     6   ar
    20     6     7   ar
    21     7    11    1
    22    11    12    2
    23    12    13    1
    24    13    14    1
    25    14    15    2
    26    15    16    1
    27    16    17    2
    28    17    18    1
    29    18    19    2
    30    18    20    1
    31    20    21    2
    32     7     8   ar
    33     8     9   ar
    34     9    10   ar
    35    28    23    1
    36    10     1   ar
    37    34    29    1
    38     9     4   ar
    39    21    11    1
    40    20    14    1
@<TRIPOS>MOLECULE
*****
 35 40 0 0 0
SMALL
GASTEIGER

@<TRIPOS>ATOM
      1 C         146.5666  141.5244  155.6616 C.ar    1  UNL1        0.2227
      2 N         145.8752  142.3227  156.7269 N.ar    1  UNL1       -0.1986
      3 C         144.6966  141.7437  157.4518 C.ar    1  UNL1        0.1376
      4 C         144.2093  140.3664  157.1115 C.ar    1  UNL1        0.0676
      5 C         143.0306  139.7875  157.8364 C.ar    1  UNL1        0.0074
      6 C         142.5434  138.4103  157.4961 C.ar    1  UNL1        0.0193
      7 C         143.2348  137.6120  156.4308 C.ar    1  UNL1        0.0827
      8 N         144.4135  138.1910  155.7059 N.ar    1  UNL1       -0.2264
      9 C         144.9007  139.5682  156.0462 C.ar    1  UNL1        0.1678
     10 N         146.0794  140.1472  155.3213 N.ar    1  UNL1       -0.1944
     11 C         142.7475  136.2348  156.0905 C.2     1  UNL1        0.0140
     12 C         141.6173  136.0575  155.1204 C.2     1  UNL1       -0.0183
     13 C         141.1300  134.6804  154.7800 C.3     1  UNL1        0.0720
     14 C         141.7729  133.4803  155.4098 C.2     1  UNL1        0.0693
     15 N         141.2856  132.1031  155.0695 N.2     1  UNL1       -0.2301
     16 C         141.9286  130.9032  155.6993 C.2     1  UNL1        0.1880
     17 N         143.0588  131.0804  156.6694 N.am    1  UNL1       -0.1537
     18 C         143.5461  132.4576  157.0098 C.2     1  UNL1        0.2715
     19 O         144.6764  132.6348  157.9799 O.2     1  UNL1       -0.2679
     20 C         142.9032  133.6575  156.3800 C.2     1  UNL1        0.0694
     21 C         143.3905  135.0348  156.7203 C.2     1  UNL1        0.0070
     22 C         146.1516  143.6268  153.5621 C.3     1  UNL1        0.0242
     23 C         147.5378  143.1546  153.8870 C.3     1  UNL1        0.1052
     24 C         148.7165  143.7336  153.1621 C.3     1  UNL1        0.1619
     25 O         150.1027  143.2614  153.4870 O.3     1  UNL1       -0.3502
     26 C         150.3102  142.2103  154.5367 C.3     1  UNL1        0.1637
     27 C         149.1315  141.6313  155.2616 C.3     1  UNL1        0.1256
     28 N         147.7454  142.1035  154.9367 N.pl3   1  UNL1       -0.2747
     29 N         144.0052  142.5419  158.5171 N.pl3   1  UNL1       -0.2897
     30 C         144.4271  142.4047  159.9499 C.3     1  UNL1        0.1242
     31 C         143.7357  143.2029  161.0152 C.3     1  UNL1        0.1636
     32 O         142.6223  144.1384  160.6476 O.3     1  UNL1       -0.3502
     33 C         142.2003  144.2758  159.2147 C.3     1  UNL1        0.1618
     34 C         142.8918  143.4775  158.1494 C.3     1  UNL1        0.1038
     35 C         142.4698  143.6148  156.7166 C.3     1  UNL1        0.0241
@<TRIPOS>BOND
     1    23    22    1
     2    23    24    1
     3    24    25    1
     4    25    26    1
     5    26    27    1
     6    27    28    1
     7    28     1    1
     8     1     2   ar
     9     2     3   ar
    10     3    29    1
    11    29    30    1
    12    30    31    1
    13    31    32    1
    14    32    33    1
    15    33    34    1
    16    34    35    1
    17     3     4   ar
    18     4     5   ar
    19     5     6   ar
    20     6     7   ar
    21     7    11    1
    22    11    12    2
    23    12    13    1
    24    13    14    1
    25    14    15    2
    26    15    16    1
    27    16    17    2
    28    17    18    1
    29    18    19    2
    30    18    20    1
    31    20    21    2
    32     7     8   ar
    33     8     9   ar
    34     9    10   ar
    35    28    23    1
    36    10     1   ar
    37    34    29    1
    38     9     4   ar
    39    21    11    1
    40    20    14    1
@<TRIPOS>MOLECULE
*****
 35 40 0 0 0
SMALL
GASTEIGER

@<TRIPOS>ATOM
      1 C         143.1567  139.8672  160.5678 C.ar    1  UNL1        0.2227
      2 N         142.1542  140.8171  159.9825 N.ar    1  UNL1       -0.1986
      3 C         141.4358  140.4620  158.7146 C.ar    1  UNL1        0.1376
      4 C         141.7199  139.1569  158.0318 C.ar    1  UNL1        0.0676
      5 C         141.0015  138.8019  156.7639 C.ar    1  UNL1        0.0074
      6 C         141.2856  137.4968  156.0812 C.ar    1  UNL1        0.0193
      7 C         142.2881  136.5468  156.6665 C.ar    1  UNL1        0.0827
      8 N         143.0065  136.9019  157.9344 N.ar    1  UNL1       -0.2264
      9 C         142.7224  138.2070  158.6171 C.ar    1  UNL1        0.1678
     10 N         143.4408  138.5621  159.8851 N.ar    1  UNL1       -0.1944
     11 C         142.5721  135.2417  155.9837 C.2     1  UNL1        0.0140
     12 C         141.9051  134.9165  154.6802 C.2     1  UNL1       -0.0183
     13 C         142.1892  133.6115  153.9974 C.3     1  UNL1        0.0720
     14 C         143.1402  132.6316  154.6183 C.2     1  UNL1        0.0693
     15 N         143.4243  131.3266  153.9355 N.2     1  UNL1       -0.2301
     16 C         144.3753  130.3468  154.5563 C.2     1  UNL1        0.1880
     17 N         145.0423  130.6720  155.8599 N.am    1  UNL1       -0.1537
     18 C         144.7583  131.9770  156.5427 C.2     1  UNL1        0.2715
     19 O         145.4253  132.3023  157.8462 O.2     1  UNL1       -0.2679
     20 C         143.8073  132.9568  155.9218 C.2     1  UNL1        0.0694
     21 C         143.5232  134.2619  156.6046 C.2     1  UNL1        0.0070
     22 C         142.6665  138.2786  163.0650 C.3     1  UNL1        0.0242
     23 C         143.6300  139.4280  163.0844 C.3     1  UNL1        0.1052
     24 C         144.3484  139.7832  164.3523 C.3     1  UNL1        0.1619
     25 O         145.3119  140.9326  164.3717 O.3     1  UNL1       -0.3502
     26 C         145.5571  141.7269  163.1231 C.3     1  UNL1        0.1637
     27 C         144.8387  141.3718  161.8552 C.3     1  UNL1        0.1256
     28 N         143.8751  140.2223  161.8358 N.pl3   1  UNL1       -0.2747
     29 N         140.4333  141.4120  158.1293 N.pl3   1  UNL1       -0.2897
     30 C         140.8810  142.4845  157.1810 C.3     1  UNL1        0.1242
     31 C         139.8785  143.4345  156.5957 C.3     1  UNL1        0.1636
     32 O         138.4283  143.3119  156.9587 O.3     1  UNL1       -0.3502
     33 C         137.9805  142.2394  157.9070 C.3     1  UNL1        0.1618
     34 C         138.9830  141.2894  158.4923 C.3     1  UNL1        0.1038
     35 C         138.5353  140.2169  159.4406 C.3     1  UNL1        0.0241
@<TRIPOS>BOND
     1    23    22    1
     2    23    24    1
     3    24    25    1
     4    25    26    1
     5    26    27    1
     6    27    28    1
     7    28     1    1
     8     1     2   ar
     9     2     3   ar
    10     3    29    1
    11    29    30    1
    12    30    31    1
    13    31    32    1
    14    32    33    1
    15    33    34    1
    16    34    35    1
    17     3     4   ar
    18     4     5   ar
    19     5     6   ar
    20     6     7   ar
    21     7    11    1
    22    11    12    2
    23    12    13    1
    24    13    14    1
    25    14    15    2
    26    15    16    1
    27    16    17    2
    28    17    18    1
    29    18    19    2
    30    18    20    1
    31    20    21    2
    32     7     8   ar
    33     8     9   ar
    34     9    10   ar
    35    28    23    1
    36    10     1   ar
    37    34    29    1
    38     9     4   ar
    39    21    11    1
    40    20    14    1
@<TRIPOS>MOLECULE
*****
 35 40 0 0 0
SMALL
GASTEIGER

@<TRIPOS>ATOM
      1 C         139.2622  140.4308  163.2235 C.ar    1  UNL1        0.2227
      2 N         140.3808  141.3922  163.4962 N.ar    1  UNL1       -0.1986
      3 C         140.7776  142.3962  162.4548 C.ar    1  UNL1        0.1376
      4 C         140.0557  142.4387  161.1405 C.ar    1  UNL1        0.0676
      5 C         140.4525  143.4427  160.0991 C.ar    1  UNL1        0.0074
      6 C         139.7307  143.4852  158.7849 C.ar    1  UNL1        0.0193
      7 C         138.6120  142.5238  158.5122 C.ar    1  UNL1        0.0827
      8 N         138.2153  141.5199  159.5536 N.ar    1  UNL1       -0.2264
      9 C         138.9371  141.4773  160.8678 C.ar    1  UNL1        0.1678
     10 N         138.5403  140.4734  161.9093 N.ar    1  UNL1       -0.1944
     11 C         137.8902  142.5664  157.1979 C.2     1  UNL1        0.0140
     12 C         138.2233  143.6294  156.1934 C.2     1  UNL1       -0.0183
     13 C         137.5015  143.6720  154.8792 C.3     1  UNL1        0.0720
     14 C         136.4466  142.6515  154.5695 C.2     1  UNL1        0.0693
     15 N         135.7248  142.6941  153.2553 N.2     1  UNL1       -0.2301
     16 C         134.6699  141.6737  152.9456 C.2     1  UNL1        0.1880
     17 N         134.3368  140.6107  153.9501 N.am    1  UNL1       -0.1537
     18 C         135.0586  140.5681  155.2643 C.2     1  UNL1        0.2715
     19 O         134.7255  139.5051  156.2688 O.2     1  UNL1       -0.2679
     20 C         136.1135  141.5885  155.5740 C.2     1  UNL1        0.0694
     21 C         136.8353  141.5460  156.8882 C.2     1  UNL1        0.0070
     22 C         139.8769  137.5230  162.8152 C.3     1  UNL1        0.0242
     23 C         139.1727  137.9730  164.0609 C.3     1  UNL1        0.1052
     24 C         138.7760  136.9691  165.1023 C.3     1  UNL1        0.1619
     25 O         138.0718  137.4191  166.3480 O.3     1  UNL1       -0.3502
     26 C         137.7645  138.8730  166.5522 C.3     1  UNL1        0.1637
     27 C         138.1612  139.8769  165.5107 C.3     1  UNL1        0.1256
     28 N         138.8654  139.4269  164.2650 N.pl3   1  UNL1       -0.2747
     29 N         141.8962  143.3576  162.7275 N.pl3   1  UNL1       -0.2897
     30 C         143.2743  143.0713  162.2090 C.3     1  UNL1        0.1242
     31 C         144.3929  144.0327  162.4818 C.3     1  UNL1        0.1636
     32 O         144.1335  145.2803  163.2730 O.3     1  UNL1       -0.3502
     33 C         142.7553  145.5666  163.7915 C.3     1  UNL1        0.1618
     34 C         141.6367  144.6052  163.5188 C.3     1  UNL1        0.1038
     35 C         140.2586  144.8915  164.0373 C.3     1  UNL1        0.0241
@<TRIPOS>BOND
     1    23    22    1
     2    23    24    1
     3    24    25    1
     4    25    26    1
     5    26    27    1
     6    27    28    1
     7    28     1    1
     8     1     2   ar
     9     2     3   ar
    10     3    29    1
    11    29    30    1
    12    30    31    1
    13    31    32    1
    14    32    33    1
    15    33    34    1
    16    34    35    1
    17     3     4   ar
    18     4     5   ar
    19     5     6   ar
    20     6     7   ar
    21     7    11    1
    22    11    12    2
    23    12    13    1
    24    13    14    1
    25    14    15    2
    26    15    16    1
    27    16    17    2
    28    17    18    1
    29    18    19    2
    30    18    20    1
    31    20    21    2
    32     7     8   ar
    33     8     9   ar
    34     9    10   ar
    35    28    23    1
    36    10     1   ar
    37    34    29    1
    38     9     4   ar
    39    21    11    1
    40    20    14    1
@<TRIPOS>MOLECULE
*****
 35 40 0 0 0
SMALL
GASTEIGER

@<TRIPOS>ATOM
      1 C         144.7778  141.9838  155.9392 C.ar    1  UNL1        0.2227
      2 N         144.3952  142.4557  157.3106 N.ar    1  UNL1       -0.1986
      3 C         143.7519  141.5069  158.2779 C.ar    1  UNL1        0.1376
      4 C         143.4912  140.0860  157.8738 C.ar    1  UNL1        0.0676
      5 C         142.8478  139.1371  158.8411 C.ar    1  UNL1        0.0074
      6 C         142.5872  137.7164  158.4370 C.ar    1  UNL1        0.0193
      7 C         142.9698  137.2444  157.0655 C.ar    1  UNL1        0.0827
      8 N         143.6132  138.1933  156.0982 N.ar    1  UNL1       -0.2264
      9 C         143.8738  139.6141  156.5024 C.ar    1  UNL1        0.1678
     10 N         144.5172  140.5630  155.5350 N.ar    1  UNL1       -0.1944
     11 C         142.7091  135.8236  156.6614 C.2     1  UNL1        0.0140
     12 C         141.5830  135.5053  155.7231 C.2     1  UNL1       -0.0183
     13 C         141.3223  134.0845  155.3189 C.3     1  UNL1        0.0720
     14 C         142.1877  132.9819  155.8532 C.2     1  UNL1        0.0693
     15 N         141.9270  131.5611  155.4491 N.2     1  UNL1       -0.2301
     16 C         142.7924  130.4586  155.9833 C.2     1  UNL1        0.1880
     17 N         143.9185  130.7769  156.9217 N.am    1  UNL1       -0.1537
     18 C         144.1793  132.1976  157.3258 C.2     1  UNL1        0.2715
     19 O         145.3054  132.5159  158.2641 O.2     1  UNL1       -0.2679
     20 C         143.3138  133.3002  156.7915 C.2     1  UNL1        0.0694
     21 C         143.5745  134.7210  157.1957 C.2     1  UNL1        0.0070
     22 C         147.7682  142.1607  155.7754 C.3     1  UNL1        0.0242
     23 C         146.9163  143.0212  154.8900 C.3     1  UNL1        0.1052
     24 C         147.5596  143.9701  153.9227 C.3     1  UNL1        0.1619
     25 O         146.7078  144.8306  153.0373 O.3     1  UNL1       -0.3502
     26 C         145.2126  144.7422  153.1191 C.3     1  UNL1        0.1637
     27 C         144.5694  143.7933  154.0864 C.3     1  UNL1        0.1256
     28 N         145.4212  142.9328  154.9718 N.pl3   1  UNL1       -0.2747
     29 N         143.3692  141.9788  159.6494 N.pl3   1  UNL1       -0.2897
     30 C         144.3529  141.8817  160.7776 C.3     1  UNL1        0.1242
     31 C         143.9702  142.3536  162.1490 C.3     1  UNL1        0.1636
     32 O         142.6039  142.9226  162.3923 O.3     1  UNL1       -0.3502
     33 C         141.6201  143.0198  161.2640 C.3     1  UNL1        0.1618
     34 C         142.0027  142.5479  159.8926 C.3     1  UNL1        0.1038
     35 C         141.0191  142.6450  158.7644 C.3     1  UNL1        0.0241
@<TRIPOS>BOND
     1    23    22    1
     2    23    24    1
     3    24    25    1
     4    25    26    1
     5    26    27    1
     6    27    28    1
     7    28     1    1
     8     1     2   ar
     9     2     3   ar
    10     3    29    1
    11    29    30    1
    12    30    31    1
    13    31    32    1
    14    32    33    1
    15    33    34    1
    16    34    35    1
    17     3     4   ar
    18     4     5   ar
    19     5     6   ar
    20     6     7   ar
    21     7    11    1
    22    11    12    2
    23    12    13    1
    24    13    14    1
    25    14    15    2
    26    15    16    1
    27    16    17    2
    28    17    18    1
    29    18    19    2
    30    18    20    1
    31    20    21    2
    32     7     8   ar
    33     8     9   ar
    34     9    10   ar
    35    28    23    1
    36    10     1   ar
    37    34    29    1
    38     9     4   ar
    39    21    11    1
    40    20    14    1
@<TRIPOS>MOLECULE
*****
 35 40 0 0 0
SMALL
GASTEIGER

@<TRIPOS>ATOM
      1 C         140.8310  142.3933  158.6151 C.ar    1  UNL1        0.2227
      2 N         141.1345  141.1253  157.8734 N.ar    1  UNL1       -0.1986
      3 C         141.0723  139.8066  158.5856 C.ar    1  UNL1        0.1376
      4 C         140.7066  139.7559  160.0395 C.ar    1  UNL1        0.0676
      5 C         140.6444  138.4373  160.7517 C.ar    1  UNL1        0.0074
      6 C         140.2787  138.3866  162.2055 C.ar    1  UNL1        0.0193
      7 C         139.9752  139.6546  162.9472 C.ar    1  UNL1        0.0827
      8 N         140.0374  140.9733  162.2350 N.ar    1  UNL1       -0.2264
      9 C         140.4031  141.0239  160.7812 C.ar    1  UNL1        0.1678
     10 N         140.4653  142.3426  160.0689 N.ar    1  UNL1       -0.1944
     11 C         139.6096  139.6040  164.4011 C.2     1  UNL1        0.0140
     12 C         138.6261  138.5832  164.8919 C.2     1  UNL1       -0.0183
     13 C         138.2604  138.5325  166.3457 C.3     1  UNL1        0.0720
     14 C         138.8781  139.5025  167.3088 C.2     1  UNL1        0.0693
     15 N         138.5124  139.4518  168.7626 N.2     1  UNL1       -0.2301
     16 C         139.1302  140.4218  169.7256 C.2     1  UNL1        0.1880
     17 N         140.1137  141.4425  169.2348 N.am    1  UNL1       -0.1537
     18 C         140.4794  141.4933  167.7810 C.2     1  UNL1        0.2715
     19 O         141.4628  142.5140  167.2902 O.2     1  UNL1       -0.2679
     20 C         139.8616  140.5233  166.8180 C.2     1  UNL1        0.0694
     21 C         140.2273  140.5740  165.3641 C.2     1  UNL1        0.0070
     22 C         138.5788  143.2374  156.8220 C.3     1  UNL1        0.0242
     23 C         139.7671  144.1340  157.0063 C.3     1  UNL1        0.1052
     24 C         139.8294  145.4527  156.2941 C.3     1  UNL1        0.1619
     25 O         141.0177  146.3493  156.4784 O.3     1  UNL1       -0.3502
     26 C         142.1438  145.9272  157.3749 C.3     1  UNL1        0.1637
     27 C         142.0816  144.6086  158.0871 C.3     1  UNL1        0.1256
     28 N         140.8932  143.7120  157.9028 N.pl3   1  UNL1       -0.2747
     29 N         141.3758  138.5386  157.8439 N.pl3   1  UNL1       -0.2897
     30 C         142.6475  137.7933  158.1217 C.3     1  UNL1        0.1242
     31 C         142.9510  136.5253  157.3800 C.3     1  UNL1        0.1636
     32 O         141.9828  136.0026  156.3606 O.3     1  UNL1       -0.3502
     33 C         140.7110  136.7479  156.0828 C.3     1  UNL1        0.1618
     34 C         140.4075  138.0159  156.8245 C.3     1  UNL1        0.1038
     35 C         139.1358  138.7612  156.5467 C.3     1  UNL1        0.0241
@<TRIPOS>BOND
     1    23    22    1
     2    23    24    1
     3    24    25    1
     4    25    26    1
     5    26    27    1
     6    27    28    1
     7    28     1    1
     8     1     2   ar
     9     2     3   ar
    10     3    29    1
    11    29    30    1
    12    30    31    1
    13    31    32    1
    14    32    33    1
    15    33    34    1
    16    34    35    1
    17     3     4   ar
    18     4     5   ar
    19     5     6   ar
    20     6     7   ar
    21     7    11    1
    22    11    12    2
    23    12    13    1
    24    13    14    1
    25    14    15    2
    26    15    16    1
    27    16    17    2
    28    17    18    1
    29    18    19    2
    30    18    20    1
    31    20    21    2
    32     7     8   ar
    33     8     9   ar
    34     9    10   ar
    35    28    23    1
    36    10     1   ar
    37    34    29    1
    38     9     4   ar
    39    21    11    1
    40    20    14    1
@<TRIPOS>MOLECULE
*****
 35 40 0 0 0
SMALL
GASTEIGER

@<TRIPOS>ATOM
      1 C         138.6188  139.8998  156.3710 C.ar    1  UNL1        0.2227
      2 N         139.9805  139.5071  155.8793 N.ar    1  UNL1       -0.1986
      3 C         141.0339  139.0733  156.8550 C.ar    1  UNL1        0.1376
      4 C         140.7257  139.0320  158.3225 C.ar    1  UNL1        0.0676
      5 C         141.7791  138.5981  159.2982 C.ar    1  UNL1        0.0074
      6 C         141.4708  138.5569  160.7656 C.ar    1  UNL1        0.0193
      7 C         140.1091  138.9495  161.2573 C.ar    1  UNL1        0.0827
      8 N         139.0557  139.3834  160.2815 N.ar    1  UNL1       -0.2264
      9 C         139.3640  139.4246  158.8142 C.ar    1  UNL1        0.1678
     10 N         138.3106  139.8585  157.8384 N.ar    1  UNL1       -0.1944
     11 C         139.8009  138.9082  162.7247 C.2     1  UNL1        0.0140
     12 C         139.1140  137.7118  163.3134 C.2     1  UNL1       -0.0183
     13 C         138.8057  137.6705  164.7808 C.3     1  UNL1        0.0720
     14 C         139.1844  138.8257  165.6596 C.2     1  UNL1        0.0693
     15 N         138.8762  138.7844  167.1269 N.2     1  UNL1       -0.2301
     16 C         139.2549  139.9395  168.0056 C.2     1  UNL1        0.1880
     17 N         139.9419  141.1360  167.4169 N.am    1  UNL1       -0.1537
     18 C         140.2501  141.1773  165.9495 C.2     1  UNL1        0.2715
     19 O         140.9371  142.3738  165.3608 O.2     1  UNL1       -0.2679
     20 C         139.8714  140.0221  165.0709 C.2     1  UNL1        0.0694
     21 C         140.1796  140.0634  163.6034 C.2     1  UNL1        0.0070
     22 C         137.3823  137.8980  154.5098 C.3     1  UNL1        0.0242
     23 C         136.9472  139.3328  154.4646 C.3     1  UNL1        0.1052
     24 C         135.8938  139.7667  153.4889 C.3     1  UNL1        0.1619
     25 O         135.4587  141.2015  153.4437 O.3     1  UNL1       -0.3502
     26 C         136.0769  142.2023  154.3743 C.3     1  UNL1        0.1637
     27 C         137.1303  141.7684  155.3500 C.3     1  UNL1        0.1256
     28 N         137.5654  140.3337  155.3952 N.pl3   1  UNL1       -0.2747
     29 N         142.3955  138.6806  156.3634 N.pl3   1  UNL1       -0.2897
     30 C         143.4597  139.7234  156.1898 C.3     1  UNL1        0.1242
     31 C         144.8214  139.3307  155.6982 C.3     1  UNL1        0.1636
     32 O         145.1189  137.8954  155.3801 O.3     1  UNL1       -0.3502
     33 C         144.0546  136.8526  155.5536 C.3     1  UNL1        0.1618
     34 C         142.6930  137.2452  156.0453 C.3     1  UNL1        0.1038
     35 C         141.6288  136.2025  156.2188 C.3     1  UNL1        0.0241
@<TRIPOS>BOND
     1    23    22    1
     2    23    24    1
     3    24    25    1
     4    25    26    1
     5    26    27    1
     6    27    28    1
     7    28     1    1
     8     1     2   ar
     9     2     3   ar
    10     3    29    1
    11    29    30    1
    12    30    31    1
    13    31    32    1
    14    32    33    1
    15    33    34    1
    16    34    35    1
    17     3     4   ar
    18     4     5   ar
    19     5     6   ar
    20     6     7   ar
    21     7    11    1
    22    11    12    2
    23    12    13    1
    24    13    14    1
    25    14    15    2
    26    15    16    1
    27    16    17    2
    28    17    18    1
    29    18    19    2
    30    18    20    1
    31    20    21    2
    32     7     8   ar
    33     8     9   ar
    34     9    10   ar
    35    28    23    1
    36    10     1   ar
    37    34    29    1
    38     9     4   ar
    39    21    11    1
    40    20    14    1
@<TRIPOS>MOLECULE
*****
 35 40 0 0 0
SMALL
GASTEIGER

@<TRIPOS>ATOM
      1 C         141.5229  138.9237  157.7098 C.ar    1  UNL1        0.2227
      2 N         140.5130  139.7669  156.9893 N.ar    1  UNL1       -0.1986
      3 C         139.4335  140.4670  157.7604 C.ar    1  UNL1        0.1376
      4 C         139.3639  140.3239  159.2520 C.ar    1  UNL1        0.0676
      5 C         138.2845  141.0240  160.0231 C.ar    1  UNL1        0.0074
      6 C         138.2150  140.8809  161.5146 C.ar    1  UNL1        0.0193
      7 C         139.2249  140.0376  162.2350 C.ar    1  UNL1        0.0827
      8 N         140.3043  139.3375  161.4639 N.ar    1  UNL1       -0.2264
      9 C         140.3738  139.4806  159.9724 C.ar    1  UNL1        0.1678
     10 N         141.4533  138.7805  159.2013 N.ar    1  UNL1       -0.1944
     11 C         139.1553  139.8945  163.7266 C.2     1  UNL1        0.0140
     12 C         138.4785  138.7020  164.3348 C.2     1  UNL1       -0.0183
     13 C         138.4089  138.5588  165.8263 C.3     1  UNL1        0.0720
     14 C         139.0161  139.6082  166.7097 C.2     1  UNL1        0.0693
     15 N         138.9465  139.4650  168.2012 N.2     1  UNL1       -0.2301
     16 C         139.5537  140.5144  169.0844 C.2     1  UNL1        0.1880
     17 N         140.2304  141.7069  168.4762 N.am    1  UNL1       -0.1537
     18 C         140.3000  141.8500  166.9847 C.2     1  UNL1        0.2715
     19 O         140.9768  143.0425  166.3765 O.2     1  UNL1       -0.2679
     20 C         139.6929  140.8007  166.1014 C.2     1  UNL1        0.0694
     21 C         139.7625  140.9438  164.6099 C.2     1  UNL1        0.0070
     22 C         143.6167  140.5208  156.2727 C.3     1  UNL1        0.0242
     23 C         143.6492  139.0221  156.2201 C.3     1  UNL1        0.1052
     24 C         144.7286  138.3220  155.4490 C.3     1  UNL1        0.1619
     25 O         144.7611  136.8233  155.3964 O.3     1  UNL1       -0.3502
     26 C         143.7143  136.0247  156.1149 C.3     1  UNL1        0.1637
     27 C         142.6349  136.7248  156.8860 C.3     1  UNL1        0.1256
     28 N         142.6023  138.2235  156.9386 N.pl3   1  UNL1       -0.2747
     29 N         138.4236  141.3103  157.0400 N.pl3   1  UNL1       -0.2897
     30 C         137.1344  140.7019  156.5735 C.3     1  UNL1        0.1242
     31 C         136.1245  141.5451  155.8531 C.3     1  UNL1        0.1636
     32 O         136.4038  142.9968  155.5991 O.3     1  UNL1       -0.3502
     33 C         137.6931  143.6053  156.0656 C.3     1  UNL1        0.1618
     34 C         138.7030  142.7621  156.7860 C.3     1  UNL1        0.1038
     35 C         139.9922  143.3705  157.2525 C.3     1  UNL1        0.0241
@<TRIPOS>BOND
     1    23    22    1
     2    23    24    1
     3    24    25    1
     4    25    26    1
     5    26    27    1
     6    27    28    1
     7    28     1    1
     8     1     2   ar
     9     2     3   ar
    10     3    29    1
    11    29    30    1
    12    30    31    1
    13    31    32    1
    14    32    33    1
    15    33    34    1
    16    34    35    1
    17     3     4   ar
    18     4     5   ar
    19     5     6   ar
    20     6     7   ar
    21     7    11    1
    22    11    12    2
    23    12    13    1
    24    13    14    1
    25    14    15    2
    26    15    16    1
    27    16    17    2
    28    17    18    1
    29    18    19    2
    30    18    20    1
    31    20    21    2
    32     7     8   ar
    33     8     9   ar
    34     9    10   ar
    35    28    23    1
    36    10     1   ar
    37    34    29    1
    38     9     4   ar
    39    21    11    1
    40    20    14    1
@<TRIPOS>MOLECULE
*****
 35 40 0 0 0
SMALL
GASTEIGER

@<TRIPOS>ATOM
      1 C         139.2803  141.9257  157.6126 C.ar    1  UNL1        0.2227
      2 N         140.0051  140.7950  156.9447 N.ar    1  UNL1       -0.1986
      3 C         140.4961  139.6342  157.7580 C.ar    1  UNL1        0.1376
      4 C         140.2622  139.6041  159.2394 C.ar    1  UNL1        0.0676
      5 C         140.7532  138.4433  160.0527 C.ar    1  UNL1        0.0074
      6 C         140.5193  138.4133  161.5340 C.ar    1  UNL1        0.0193
      7 C         139.7945  139.5439  162.2020 C.ar    1  UNL1        0.0827
      8 N         139.3035  140.7047  161.3887 N.ar    1  UNL1       -0.2264
      9 C         139.5374  140.7348  159.9074 C.ar    1  UNL1        0.1678
     10 N         139.0464  141.8956  159.0940 N.ar    1  UNL1       -0.1944
     11 C         139.5606  139.5138  163.6834 C.2     1  UNL1        0.0140
     12 C         138.7391  138.4155  164.2908 C.2     1  UNL1       -0.0183
     13 C         138.5052  138.3854  165.7721 C.3     1  UNL1        0.0720
     14 C         139.0929  139.4535  166.6461 C.2     1  UNL1        0.0693
     15 N         138.8590  139.4233  168.1275 N.2     1  UNL1       -0.2301
     16 C         139.4466  140.4914  169.0014 C.2     1  UNL1        0.1880
     17 N         140.2682  141.5897  168.3940 N.am    1  UNL1       -0.1537
     18 C         140.5020  141.6199  166.9127 C.2     1  UNL1        0.2715
     19 O         141.3235  142.7182  166.3053 O.2     1  UNL1       -0.2679
     20 C         139.9144  140.5518  166.0388 C.2     1  UNL1        0.0694
     21 C         140.1483  140.5819  164.5574 C.2     1  UNL1        0.0070
     22 C         136.6445  141.7527  156.1905 C.3     1  UNL1        0.0242
     23 C         137.4714  143.0000  156.0882 C.3     1  UNL1        0.1052
     24 C         136.9805  144.1607  155.2748 C.3     1  UNL1        0.1619
     25 O         137.8075  145.4080  155.1725 O.3     1  UNL1       -0.3502
     26 C         139.1254  145.4945  155.8835 C.3     1  UNL1        0.1637
     27 C         139.6163  144.3337  156.6969 C.3     1  UNL1        0.1256
     28 N         138.7893  143.0865  156.7992 N.pl3   1  UNL1       -0.2747
     29 N         141.2209  138.5036  157.0900 N.pl3   1  UNL1       -0.2897
     30 C         140.4592  137.3038  156.6100 C.3     1  UNL1        0.1242
     31 C         141.1841  136.1732  155.9421 C.3     1  UNL1        0.1636
     32 O         142.6706  136.2422  155.7540 O.3     1  UNL1       -0.3502
     33 C         143.4324  137.4420  156.2340 C.3     1  UNL1        0.1618
     34 C         142.7075  138.5727  156.9020 C.3     1  UNL1        0.1038
     35 C         143.4692  139.7724  157.3819 C.3     1  UNL1        0.0241
@<TRIPOS>BOND
     1    23    22    1
     2    23    24    1
     3    24    25    1
     4    25    26    1
     5    26    27    1
     6    27    28    1
     7    28     1    1
     8     1     2   ar
     9     2     3   ar
    10     3    29    1
    11    29    30    1
    12    30    31    1
    13    31    32    1
    14    32    33    1
    15    33    34    1
    16    34    35    1
    17     3     4   ar
    18     4     5   ar
    19     5     6   ar
    20     6     7   ar
    21     7    11    1
    22    11    12    2
    23    12    13    1
    24    13    14    1
    25    14    15    2
    26    15    16    1
    27    16    17    2
    28    17    18    1
    29    18    19    2
    30    18    20    1
    31    20    21    2
    32     7     8   ar
    33     8     9   ar
    34     9    10   ar
    35    28    23    1
    36    10     1   ar
    37    34    29    1
    38     9     4   ar
    39    21    11    1
    40    20    14    1
