@<TRIPOS>MOLECULE
*****
 35 39 0 0 0
SMALL
GASTEIGER

@<TRIPOS>ATOM
      1 C         142.1361  139.7014  167.5526 C.2     1  UNL1        0.1283
      2 N         143.2207  138.7417  167.9434 N.2     1  UNL1       -0.0375
      3 N         143.8587  138.2269  166.6872 N.2     1  UNL1        0.0826
      4 C         143.1685  138.8683  165.5203 C.2     1  UNL1        0.3991
      5 N         143.3718  138.7404  164.0396 N.2     1  UNL1        0.0275
      6 C         142.5105  139.5237  163.0938 C.2     1  UNL1        0.4243
      7 N         141.4458  140.4350  163.6287 N.am    1  UNL1       -0.1358
      8 C         140.5845  141.2184  162.6828 C.3     1  UNL1        0.2167
      9 C         141.2425  140.5630  165.1093 C.2     1  UNL1        0.3055
     10 O         140.1778  141.4743  165.6441 O.2     1  UNL1       -0.2554
     11 C         142.1038  139.7796  166.0551 C.3     1  UNL1        0.2504
     12 N         142.7138  139.3958  161.6131 N.pl3   1  UNL1       -0.1900
     13 C         143.4474  140.4667  160.8615 C.3     1  UNL1        0.1682
     14 C         143.6507  140.3387  159.3809 C.3     1  UNL1        0.0444
     15 C         143.1203  139.1399  158.6519 C.3     1  UNL1        0.0490
     16 C         142.3867  138.0690  159.4035 C.3     1  UNL1        0.0444
     17 C         142.1834  138.1969  160.8841 C.3     1  UNL1        0.1682
     18 C         142.6494  138.0045  157.7921 C.3     1  UNL1        0.1435
     19 O         143.0683  138.2877  156.3799 O.3     1  UNL1       -0.3548
     20 C         143.7981  139.5982  156.3668 C.3     1  UNL1        0.1294
     21 C         144.3914  140.2649  155.1614 C.3     1  UNL1        0.0335
     22 C         143.8302  140.1248  157.7710 C.3     1  UNL1        0.0808
     23 N         144.4614  141.4107  158.2161 N.3     1  UNL1       -0.3202
     24 H         144.3359  141.5205  159.2224 H       1  UNL1        0.1189
     25 H         144.0199  142.1919  157.7312 H       1  UNL1        0.1189
     26 C         140.7231  142.5790  169.8921 C.ar    1  UNL1        0.1392
     27 N         139.4506  141.9505  170.3775 N.ar    1  UNL1       -0.2285
     28 C         139.0733  140.5722  169.9214 C.ar    1  UNL1        0.1004
     29 C         139.9685  139.8226  168.9797 C.ar    1  UNL1        0.0229
     30 C         141.2410  140.4511  168.4943 C.ar    1  UNL1        0.0333
     31 C         141.6183  141.8294  168.9505 C.ar    1  UNL1        0.0902
     32 CL        142.8908  142.4579  168.4650 Cl      1  UNL1       -0.0793
     33 C         140.0745  145.0514  170.3574 C.3     1  UNL1        0.1097
     34 N         141.1005  143.9572  170.3482 N.pl3   1  UNL1       -0.3160
     35 H         142.0216  144.1436  170.6416 H       1  UNL1        0.1483
@<TRIPOS>BOND
     1    33    34    1
     2    34    26    1
     3    26    27   ar
     4    27    28   ar
     5    28    29   ar
     6    29    30   ar
     7    30     1    1
     8     1     2    2
     9     2     3    1
    10     3     4    2
    11     4     5    1
    12     5     6    2
    13     6    12    1
    14    12    13    1
    15    13    14    1
    16    14    15    1
    17    15    16    1
    18    16    17    1
    19    15    18    1
    20    18    19    1
    21    19    20    1
    22    20    21    1
    23    20    22    1
    24    22    23    1
    25     6     7    1
    26     7     8    1
    27     7     9   am
    28     9    10    2
    29     9    11    1
    30    30    31   ar
    31    31    32    1
    32    31    26   ar
    33    11     1    1
    34    11     4    1
    35    17    12    1
    36    22    15    1
    37    34    35    1
    38    23    24    1
    39    23    25    1
@<TRIPOS>MOLECULE
*****
 35 39 0 0 0
SMALL
GASTEIGER

@<TRIPOS>ATOM
      1 C         141.7955  140.0385  157.7434 C.2     1  UNL1        0.1283
      2 N         140.7214  140.9628  157.2514 N.2     1  UNL1       -0.0375
      3 N         139.8251  141.2895  158.4089 N.2     1  UNL1        0.0826
      4 C         140.3451  140.5671  159.6162 C.2     1  UNL1        0.3991
      5 N         139.8671  140.5134  161.0370 N.2     1  UNL1        0.0275
      6 C         140.6068  139.6866  162.0464 C.2     1  UNL1        0.4243
      7 N         141.8246  138.9134  161.6352 N.am    1  UNL1       -0.1358
      8 C         142.5644  138.0866  162.6447 C.3     1  UNL1        0.2167
      9 C         142.3027  138.9671  160.2144 C.2     1  UNL1        0.3055
     10 O         143.5205  138.1939  159.8031 O.2     1  UNL1       -0.2554
     11 C         141.5629  139.7940  159.2049 C.3     1  UNL1        0.2504
     12 N         140.1288  139.6329  163.4673 N.pl3   1  UNL1       -0.1900
     13 C         140.7967  140.4726  164.5155 C.3     1  UNL1        0.1682
     14 C         140.3186  140.4188  165.9363 C.3     1  UNL1        0.0444
     15 C         139.1727  139.5254  166.3088 C.3     1  UNL1        0.0490
     16 C         138.5049  138.6858  165.2605 C.3     1  UNL1        0.0444
     17 C         138.9829  138.7395  163.8398 C.3     1  UNL1        0.1682
     18 C         138.0446  138.6844  166.8282 C.3     1  UNL1        0.1435
     19 O         137.9135  138.9425  168.3001 O.3     1  UNL1       -0.3548
     20 C         138.9607  139.9431  168.6903 C.3     1  UNL1        0.1294
     21 C         139.1895  140.4878  170.0689 C.3     1  UNL1        0.0335
     22 C         139.7389  140.3034  167.4596 C.3     1  UNL1        0.0808
     23 N         140.8826  141.2716  167.3916 N.3     1  UNL1       -0.3202
     24 H         141.2258  141.3255  166.4325 H       1  UNL1        0.1189
     25 H         141.6338  140.9541  168.0042 H       1  UNL1        0.1189
     26 C         143.9008  137.4905  155.5466 C.ar    1  UNL1        0.1392
     27 N         145.1301  138.3040  155.2690 N.ar    1  UNL1       -0.2285
     28 C         145.2478  139.6957  155.8162 C.ar    1  UNL1        0.1004
     29 C         144.1362  140.2738  156.6410 C.ar    1  UNL1        0.0229
     30 C         142.9070  139.4603  156.9186 C.ar    1  UNL1        0.0333
     31 C         142.7893  138.0686  156.3714 C.ar    1  UNL1        0.0902
     32 CL        141.5600  137.2551  156.6490 Cl      1  UNL1       -0.0793
     33 C         143.9277  134.9187  155.9140 C.3     1  UNL1        0.1097
     34 N         143.7830  136.0989  154.9995 N.pl3   1  UNL1       -0.3160
     35 H         143.6107  135.9600  154.0402 H       1  UNL1        0.1483
@<TRIPOS>BOND
     1    33    34    1
     2    34    26    1
     3    26    27   ar
     4    27    28   ar
     5    28    29   ar
     6    29    30   ar
     7    30     1    1
     8     1     2    2
     9     2     3    1
    10     3     4    2
    11     4     5    1
    12     5     6    2
    13     6    12    1
    14    12    13    1
    15    13    14    1
    16    14    15    1
    17    15    16    1
    18    16    17    1
    19    15    18    1
    20    18    19    1
    21    19    20    1
    22    20    21    1
    23    20    22    1
    24    22    23    1
    25     6     7    1
    26     7     8    1
    27     7     9   am
    28     9    10    2
    29     9    11    1
    30    30    31   ar
    31    31    32    1
    32    31    26   ar
    33    11     1    1
    34    11     4    1
    35    17    12    1
    36    22    15    1
    37    34    35    1
    38    23    24    1
    39    23    25    1
@<TRIPOS>MOLECULE
*****
 35 39 0 0 0
SMALL
GASTEIGER

@<TRIPOS>ATOM
      1 C         139.2146  141.5026  164.1047 C.2     1  UNL1        0.1283
      2 N         138.2566  142.5090  163.5396 N.2     1  UNL1       -0.0375
      3 N         138.7505  142.9067  162.1803 N.2     1  UNL1        0.0826
      4 C         140.0137  142.1461  161.9052 C.2     1  UNL1        0.3991
      5 N         140.9399  142.1315  160.7253 N.2     1  UNL1        0.0275
      6 C         142.1528  141.2492  160.7349 C.2     1  UNL1        0.4243
      7 N         142.4397  140.3814  161.9242 N.am    1  UNL1       -0.1358
      8 C         143.6528  139.4991  161.9337 C.3     1  UNL1        0.2167
      9 C         141.5136  140.3959  163.1041 C.2     1  UNL1        0.3055
     10 O         141.8005  139.5281  164.2935 O.2     1  UNL1       -0.2554
     11 C         140.3005  141.2783  163.0946 C.3     1  UNL1        0.2504
     12 N         143.0790  141.2347  159.5550 N.pl3   1  UNL1       -0.1900
     13 C         144.1993  142.2283  159.4686 C.3     1  UNL1        0.1682
     14 C         145.1254  142.2137  158.2888 C.3     1  UNL1        0.0444
     15 C         144.9312  141.2055  157.1953 C.3     1  UNL1        0.0490
     16 C         143.8109  140.2118  157.2817 C.3     1  UNL1        0.0444
     17 C         142.8848  140.2264  158.4615 C.3     1  UNL1        0.1682
     18 C         144.8616  140.2618  156.0314 C.3     1  UNL1        0.1435
     19 O         145.9770  140.6051  155.0889 O.3     1  UNL1       -0.3548
     20 C         146.7360  141.7610  155.6704 C.3     1  UNL1        0.1294
     21 C         147.9313  142.4285  155.0577 C.3     1  UNL1        0.0335
     22 C         146.0897  142.1320  156.9722 C.3     1  UNL1        0.0808
     23 N         146.5252  143.2357  157.8898 N.3     1  UNL1       -0.3202
     24 H         145.9089  143.2658  158.7020 H       1  UNL1        0.1189
     25 H         146.4799  144.1267  157.3954 H       1  UNL1        0.1189
     26 C         139.7843  140.6963  167.9486 C.ar    1  UNL1        0.1392
     27 N         138.8879  139.5066  168.1246 N.ar    1  UNL1       -0.2285
     28 C         138.1004  138.9822  166.9606 C.ar    1  UNL1        0.1004
     29 C         138.2093  139.6476  165.6207 C.ar    1  UNL1        0.0229
     30 C         139.1058  140.8373  165.4447 C.ar    1  UNL1        0.0333
     31 C         139.8933  141.3616  166.6087 C.ar    1  UNL1        0.0902
     32 CL        140.7897  142.5514  166.4327 Cl      1  UNL1       -0.0793
     33 C         139.9866  142.2814  169.9972 C.3     1  UNL1        0.1097
     34 N         140.5718  141.2207  169.1125 N.pl3   1  UNL1       -0.3160
     35 H         141.4728  140.8688  169.2958 H       1  UNL1        0.1483
@<TRIPOS>BOND
     1    33    34    1
     2    34    26    1
     3    26    27   ar
     4    27    28   ar
     5    28    29   ar
     6    29    30   ar
     7    30     1    1
     8     1     2    2
     9     2     3    1
    10     3     4    2
    11     4     5    1
    12     5     6    2
    13     6    12    1
    14    12    13    1
    15    13    14    1
    16    14    15    1
    17    15    16    1
    18    16    17    1
    19    15    18    1
    20    18    19    1
    21    19    20    1
    22    20    21    1
    23    20    22    1
    24    22    23    1
    25     6     7    1
    26     7     8    1
    27     7     9   am
    28     9    10    2
    29     9    11    1
    30    30    31   ar
    31    31    32    1
    32    31    26   ar
    33    11     1    1
    34    11     4    1
    35    17    12    1
    36    22    15    1
    37    34    35    1
    38    23    24    1
    39    23    25    1
@<TRIPOS>MOLECULE
*****
 35 39 0 0 0
SMALL
GASTEIGER

@<TRIPOS>ATOM
      1 C         140.5688  138.4984  157.8787 C.2     1  UNL1        0.1283
      2 N         139.2803  139.0978  157.3985 N.2     1  UNL1       -0.0375
      3 N         138.5081  139.5591  158.5988 N.2     1  UNL1        0.0826
      4 C         139.3192  139.2448  159.8207 C.2     1  UNL1        0.3991
      5 N         139.0626  139.4709  161.2813 N.2     1  UNL1        0.0275
      6 C         140.0797  139.0414  162.2967 C.2     1  UNL1        0.4243
      7 N         141.3533  138.3858  161.8516 N.am    1  UNL1       -0.1358
      8 C         142.3704  137.9563  162.8671 C.3     1  UNL1        0.2167
      9 C         141.6099  138.1597  160.3912 C.2     1  UNL1        0.3055
     10 O         142.8835  137.5041  159.9461 O.2     1  UNL1       -0.2554
     11 C         140.5928  138.5892  159.3757 C.3     1  UNL1        0.2504
     12 N         139.8232  139.2675  163.7573 N.pl3   1  UNL1       -0.1900
     13 C         140.6198  140.2924  164.5088 C.3     1  UNL1        0.1682
     14 C         140.3632  140.5185  165.9693 C.3     1  UNL1        0.0444
     15 C         139.3100  139.7196  166.6782 C.3     1  UNL1        0.0490
     16 C         138.5134  138.6946  165.9267 C.3     1  UNL1        0.0444
     17 C         138.7700  138.4686  164.4662 C.3     1  UNL1        0.1682
     18 C         138.2952  139.0005  167.5168 C.3     1  UNL1        0.1435
     19 O         138.3812  139.5409  168.9135 O.3     1  UNL1       -0.3548
     20 C         139.4493  140.5940  168.9381 C.3     1  UNL1        0.1294
     21 C         139.8694  141.3958  170.1341 C.3     1  UNL1        0.0335
     22 C         140.0233  140.7044  167.5567 C.3     1  UNL1        0.0808
     23 N         141.1182  141.6359  167.1287 N.3     1  UNL1       -0.3202
     24 H         141.3112  141.5006  166.1363 H       1  UNL1        0.1189
     25 H         141.9612  141.4407  167.6688 H       1  UNL1        0.1189
     26 C         143.9522  138.1210  155.8390 C.ar    1  UNL1        0.1392
     27 N         143.7954  136.7366  155.2835 N.ar    1  UNL1       -0.2285
     28 C         142.5631  135.9394  155.5930 C.ar    1  UNL1        0.1004
     29 C         141.4876  136.5267  156.4581 C.ar    1  UNL1        0.0229
     30 C         141.6444  137.9111  157.0136 C.ar    1  UNL1        0.0333
     31 C         142.8767  138.7083  156.7041 C.ar    1  UNL1        0.0902
     32 CL        143.0335  140.0928  157.2597 Cl      1  UNL1       -0.0793
     33 C         145.2321  139.7795  154.3023 C.3     1  UNL1        0.1097
     34 N         145.1845  138.9183  155.5295 N.pl3   1  UNL1       -0.3160
     35 H         145.9621  138.8763  156.1319 H       1  UNL1        0.1483
@<TRIPOS>BOND
     1    33    34    1
     2    34    26    1
     3    26    27   ar
     4    27    28   ar
     5    28    29   ar
     6    29    30   ar
     7    30     1    1
     8     1     2    2
     9     2     3    1
    10     3     4    2
    11     4     5    1
    12     5     6    2
    13     6    12    1
    14    12    13    1
    15    13    14    1
    16    14    15    1
    17    15    16    1
    18    16    17    1
    19    15    18    1
    20    18    19    1
    21    19    20    1
    22    20    21    1
    23    20    22    1
    24    22    23    1
    25     6     7    1
    26     7     8    1
    27     7     9   am
    28     9    10    2
    29     9    11    1
    30    30    31   ar
    31    31    32    1
    32    31    26   ar
    33    11     1    1
    34    11     4    1
    35    17    12    1
    36    22    15    1
    37    34    35    1
    38    23    24    1
    39    23    25    1
@<TRIPOS>MOLECULE
*****
 35 39 0 0 0
SMALL
GASTEIGER

@<TRIPOS>ATOM
      1 C         142.8677  140.9719  165.5880 C.2     1  UNL1        0.1283
      2 N         143.8991  140.0131  165.0713 N.2     1  UNL1       -0.0375
      3 N         143.9435  140.1409  163.5774 N.2     1  UNL1        0.0826
      4 C         142.9397  141.1786  163.1709 C.2     1  UNL1        0.3991
      5 N         142.5450  141.7223  161.8297 N.2     1  UNL1        0.0275
      6 C         141.4856  142.7796  161.7312 C.2     1  UNL1        0.4243
      7 N         140.8207  143.2931  162.9739 N.am    1  UNL1       -0.1358
      8 C         139.7612  144.3504  162.8753 C.3     1  UNL1        0.2167
      9 C         141.2153  142.7495  164.3150 C.2     1  UNL1        0.3055
     10 O         140.5504  143.2631  165.5576 O.2     1  UNL1       -0.2554
     11 C         142.2748  141.6922  164.4136 C.3     1  UNL1        0.2504
     12 N         141.0909  143.3233  160.3900 N.pl3   1  UNL1       -0.1900
     13 C         141.8674  144.4527  159.7806 C.3     1  UNL1        0.1682
     14 C         141.4727  144.9963  158.4395 C.3     1  UNL1        0.0444
     15 C         140.3016  144.4105  157.7078 C.3     1  UNL1        0.0490
     16 C         139.5252  143.2811  158.3172 C.3     1  UNL1        0.0444
     17 C         139.9198  142.7375  159.6583 C.3     1  UNL1        0.1682
     18 C         139.1600  143.9289  156.8624 C.3     1  UNL1        0.1435
     19 O         139.1321  144.7520  155.6086 O.3     1  UNL1       -0.3548
     20 C         140.2566  145.7424  155.6792 C.3     1  UNL1        0.1294
     21 C         140.5982  146.7642  154.6357 C.3     1  UNL1        0.0335
     22 C         140.9794  145.5313  156.9765 C.3     1  UNL1        0.0808
     23 N         142.1707  146.3051  157.4581 N.3     1  UNL1       -0.3202
     24 H         142.4586  145.9528  158.3710 H       1  UNL1        0.1189
     25 H         141.9260  147.2922  157.5363 H       1  UNL1        0.1189
     26 C         141.0147  140.5695  169.0744 C.ar    1  UNL1        0.1392
     27 N         141.7492  141.5804  169.9042 N.ar    1  UNL1       -0.2285
     28 C         142.8565  142.3885  169.2952 C.ar    1  UNL1        0.1004
     29 C         143.2293  142.1856  167.8565 C.ar    1  UNL1        0.0229
     30 C         142.4948  141.1747  167.0267 C.ar    1  UNL1        0.0333
     31 C         141.3875  140.3666  167.6357 C.ar    1  UNL1        0.0902
     32 CL        140.6530  139.3557  166.8059 Cl      1  UNL1       -0.0793
     33 C         138.6536  140.4393  170.1506 C.3     1  UNL1        0.1097
     34 N         139.9074  139.7613  169.6833 N.pl3   1  UNL1       -0.3160
     35 H         140.0035  138.7860  169.7761 H       1  UNL1        0.1483
@<TRIPOS>BOND
     1    33    34    1
     2    34    26    1
     3    26    27   ar
     4    27    28   ar
     5    28    29   ar
     6    29    30   ar
     7    30     1    1
     8     1     2    2
     9     2     3    1
    10     3     4    2
    11     4     5    1
    12     5     6    2
    13     6    12    1
    14    12    13    1
    15    13    14    1
    16    14    15    1
    17    15    16    1
    18    16    17    1
    19    15    18    1
    20    18    19    1
    21    19    20    1
    22    20    21    1
    23    20    22    1
    24    22    23    1
    25     6     7    1
    26     7     8    1
    27     7     9   am
    28     9    10    2
    29     9    11    1
    30    30    31   ar
    31    31    32    1
    32    31    26   ar
    33    11     1    1
    34    11     4    1
    35    17    12    1
    36    22    15    1
    37    34    35    1
    38    23    24    1
    39    23    25    1
@<TRIPOS>MOLECULE
*****
 35 39 0 0 0
SMALL
GASTEIGER

@<TRIPOS>ATOM
      1 C         142.9744  142.6251  164.9197 C.2     1  UNL1        0.1283
      2 N         143.9824  143.6731  165.2878 N.2     1  UNL1       -0.0375
      3 N         144.1273  144.6064  164.1225 N.2     1  UNL1        0.0826
      4 C         143.2088  144.1353  163.0343 C.2     1  UNL1        0.3991
      5 N         142.9292  144.6631  161.6583 N.2     1  UNL1        0.0275
      6 C         141.9370  143.9664  160.7751 C.2     1  UNL1        0.4243
      7 N         141.2244  142.7418  161.2678 N.am    1  UNL1       -0.1358
      8 C         140.2322  142.0451  160.3845 C.3     1  UNL1        0.2167
      9 C         141.5040  142.2140  162.6437 C.2     1  UNL1        0.3055
     10 O         140.7914  140.9895  163.1364 O.2     1  UNL1       -0.2554
     11 C         142.4962  142.9108  163.5270 C.3     1  UNL1        0.2504
     12 N         141.6573  144.4942  159.3991 N.pl3   1  UNL1       -0.1900
     13 C         142.5653  144.1369  158.2599 C.3     1  UNL1        0.1682
     14 C         142.2857  144.6647  156.8840 C.3     1  UNL1        0.0444
     15 C         141.0980  145.5498  156.6473 C.3     1  UNL1        0.0490
     16 C         140.1900  145.9071  157.7865 C.3     1  UNL1        0.0444
     17 C         140.4697  145.3793  159.1624 C.3     1  UNL1        0.1682
     18 C         139.9547  146.4403  156.2601 C.3     1  UNL1        0.1435
     19 O         140.0626  146.7207  154.7904 O.3     1  UNL1       -0.3548
     20 C         141.2726  146.0034  154.2693 C.3     1  UNL1        0.1294
     21 C         141.7576  146.0088  152.8500 C.3     1  UNL1        0.0335
     22 C         141.9125  145.2798  155.4169 C.3     1  UNL1        0.0808
     23 N         143.1496  144.4345  155.3466 N.3     1  UNL1       -0.3202
     24 H         143.3608  144.0632  156.2728 H       1  UNL1        0.1189
     25 H         143.9318  145.0029  155.0217 H       1  UNL1        0.1189
     26 C         140.8242  140.4906  167.4831 C.ar    1  UNL1        0.1392
     27 N         141.6222  139.2216  167.5347 N.ar    1  UNL1       -0.2285
     28 C         142.8710  139.0871  166.7147 C.ar    1  UNL1        0.1004
     29 C         143.3217  140.2216  165.8430 C.ar    1  UNL1        0.0229
     30 C         142.5236  141.4906  165.7914 C.ar    1  UNL1        0.0333
     31 C         141.2748  141.6251  166.6114 C.ar    1  UNL1        0.0902
     32 CL        140.4768  142.8941  166.5598 Cl      1  UNL1       -0.0793
     33 C         139.6690  140.7791  169.7923 C.3     1  UNL1        0.1097
     34 N         139.5754  140.6252  168.3031 N.pl3   1  UNL1       -0.3160
     35 H         138.6944  140.6126  167.8639 H       1  UNL1        0.1483
@<TRIPOS>BOND
     1    33    34    1
     2    34    26    1
     3    26    27   ar
     4    27    28   ar
     5    28    29   ar
     6    29    30   ar
     7    30     1    1
     8     1     2    2
     9     2     3    1
    10     3     4    2
    11     4     5    1
    12     5     6    2
    13     6    12    1
    14    12    13    1
    15    13    14    1
    16    14    15    1
    17    15    16    1
    18    16    17    1
    19    15    18    1
    20    18    19    1
    21    19    20    1
    22    20    21    1
    23    20    22    1
    24    22    23    1
    25     6     7    1
    26     7     8    1
    27     7     9   am
    28     9    10    2
    29     9    11    1
    30    30    31   ar
    31    31    32    1
    32    31    26   ar
    33    11     1    1
    34    11     4    1
    35    17    12    1
    36    22    15    1
    37    34    35    1
    38    23    24    1
    39    23    25    1
@<TRIPOS>MOLECULE
*****
 35 39 0 0 0
SMALL
GASTEIGER

@<TRIPOS>ATOM
      1 C         141.5446  143.6006  158.1884 C.2     1  UNL1        0.1283
      2 N         143.0382  143.6691  158.3091 N.2     1  UNL1       -0.0375
      3 N         143.4106  143.2484  159.6998 N.2     1  UNL1        0.0826
      4 C         142.1473  142.9198  160.4387 C.2     1  UNL1        0.3991
      5 N         141.8980  142.4505  161.8414 N.2     1  UNL1        0.0275
      6 C         140.4955  142.1989  162.3100 C.2     1  UNL1        0.4243
      7 N         139.3423  142.4166  161.3759 N.am    1  UNL1       -0.1358
      8 C         137.9397  142.1649  161.8445 C.3     1  UNL1        0.2167
      9 C         139.5915  142.8859  159.9732 C.2     1  UNL1        0.3055
     10 O         138.4382  143.1035  159.0391 O.2     1  UNL1       -0.2554
     11 C         140.9941  143.1375  159.5046 C.3     1  UNL1        0.2504
     12 N         140.2462  141.7295  163.7128 N.pl3   1  UNL1       -0.1900
     13 C         140.6129  142.6063  164.8733 C.3     1  UNL1        0.1682
     14 C         140.3636  142.1369  166.2759 C.3     1  UNL1        0.0444
     15 C         139.7476  140.7908  166.5181 C.3     1  UNL1        0.0490
     16 C         139.3810  139.9141  165.3576 C.3     1  UNL1        0.0444
     17 C         139.6303  140.3835  163.9549 C.3     1  UNL1        0.1682
     18 C         139.1421  139.4767  166.9136 C.3     1  UNL1        0.1435
     19 O         139.0803  139.4269  168.4116 O.3     1  UNL1       -0.3548
     20 C         139.6477  140.7103  168.9418 C.3     1  UNL1        0.1294
     21 C         139.7795  141.0849  170.3882 C.3     1  UNL1        0.0335
     22 C         140.0601  141.5532  167.7716 C.3     1  UNL1        0.0808
     23 N         140.6767  142.9188  167.8424 N.3     1  UNL1       -0.3202
     24 H         140.8560  143.2602  166.8981 H       1  UNL1        0.1189
     25 H         141.5551  142.8689  168.3585 H       1  UNL1        0.1189
     26 C         139.2217  145.5855  155.6557 C.ar    1  UNL1        0.1392
     27 N         139.1384  144.6075  154.5215 N.ar    1  UNL1       -0.2285
     28 C         139.8572  143.2939  154.6095 C.ar    1  UNL1        0.1004
     29 C         140.6592  142.9583  155.8319 C.ar    1  UNL1        0.0229
     30 C         140.7425  143.9363  156.9661 C.ar    1  UNL1        0.0333
     31 C         140.0237  145.2499  156.8780 C.ar    1  UNL1        0.0902
     32 CL        140.1070  146.2279  158.0123 Cl      1  UNL1       -0.0793
     33 C         139.1456  148.0603  154.8687 C.3     1  UNL1        0.1097
     34 N         138.5029  146.8991  155.5677 N.pl3   1  UNL1       -0.3160
     35 H         137.6094  146.9991  155.9688 H       1  UNL1        0.1483
@<TRIPOS>BOND
     1    33    34    1
     2    34    26    1
     3    26    27   ar
     4    27    28   ar
     5    28    29   ar
     6    29    30   ar
     7    30     1    1
     8     1     2    2
     9     2     3    1
    10     3     4    2
    11     4     5    1
    12     5     6    2
    13     6    12    1
    14    12    13    1
    15    13    14    1
    16    14    15    1
    17    15    16    1
    18    16    17    1
    19    15    18    1
    20    18    19    1
    21    19    20    1
    22    20    21    1
    23    20    22    1
    24    22    23    1
    25     6     7    1
    26     7     8    1
    27     7     9   am
    28     9    10    2
    29     9    11    1
    30    30    31   ar
    31    31    32    1
    32    31    26   ar
    33    11     1    1
    34    11     4    1
    35    17    12    1
    36    22    15    1
    37    34    35    1
    38    23    24    1
    39    23    25    1
@<TRIPOS>MOLECULE
*****
 35 39 0 0 0
SMALL
GASTEIGER

@<TRIPOS>ATOM
      1 C         138.5860  141.0773  163.8413 C.2     1  UNL1        0.1283
      2 N         137.5158  142.0028  163.3431 N.2     1  UNL1       -0.0375
      3 N         137.5305  141.9637  161.8437 N.2     1  UNL1        0.0826
      4 C         138.6096  141.0142  161.4153 C.2     1  UNL1        0.3991
      5 N         139.0826  140.5775  160.0603 N.2     1  UNL1        0.0275
      6 C         140.2079  139.5931  159.9401 C.2     1  UNL1        0.4243
      7 N         140.8602  139.0452  161.1747 N.am    1  UNL1       -0.1358
      8 C         141.9856  138.0607  161.0544 C.3     1  UNL1        0.2167
      9 C         140.3873  139.4818  162.5296 C.2     1  UNL1        0.3055
     10 O         141.0397  138.9339  163.7642 O.2     1  UNL1       -0.2554
     11 C         139.2620  140.4663  162.6499 C.3     1  UNL1        0.2504
     12 N         140.6809  139.1564  158.5852 N.pl3   1  UNL1       -0.1900
     13 C         140.0870  137.9397  157.9397 C.3     1  UNL1        0.1682
     14 C         140.5600  137.5031  156.5848 C.3     1  UNL1        0.0444
     15 C         141.6269  138.2832  155.8755 C.3     1  UNL1        0.0490
     16 C         142.2208  139.5000  156.5211 C.3     1  UNL1        0.0444
     17 C         141.7478  139.9366  157.8759 C.3     1  UNL1        0.1682
     18 C         142.6807  138.9593  155.0494 C.3     1  UNL1        0.1435
     19 O         142.8342  138.1878  153.7722 O.3     1  UNL1       -0.3548
     20 C         141.8753  137.0348  153.8090 C.3     1  UNL1        0.1294
     21 C         141.6944  136.0040  152.7346 C.3     1  UNL1        0.0335
     22 C         141.1292  137.0938  155.1089 C.3     1  UNL1        0.0808
     23 N         140.0711  136.1323  155.5626 N.3     1  UNL1       -0.3202
     24 H         139.7329  136.4090  156.4842 H       1  UNL1        0.1189
     25 H         140.4646  135.1926  155.6128 H       1  UNL1        0.1189
     26 C         140.1523  141.4837  167.4651 C.ar    1  UNL1        0.1392
     27 N         139.5916  140.2747  168.1535 N.ar    1  UNL1       -0.2285
     28 C         138.6957  139.3333  167.4045 C.ar    1  UNL1        0.1004
     29 C         138.3605  139.6008  165.9671 C.ar    1  UNL1        0.0229
     30 C         138.9212  140.8098  165.2787 C.ar    1  UNL1        0.0333
     31 C         139.8171  141.7512  166.0277 C.ar    1  UNL1        0.0902
     32 CL        140.3779  142.9602  165.3393 Cl      1  UNL1       -0.0793
     33 C         142.5096  142.1175  168.3548 C.3     1  UNL1        0.1097
     34 N         141.0482  142.4252  168.2140 N.pl3   1  UNL1       -0.3160
     35 H         140.6771  143.2451  168.6131 H       1  UNL1        0.1483
@<TRIPOS>BOND
     1    33    34    1
     2    34    26    1
     3    26    27   ar
     4    27    28   ar
     5    28    29   ar
     6    29    30   ar
     7    30     1    1
     8     1     2    2
     9     2     3    1
    10     3     4    2
    11     4     5    1
    12     5     6    2
    13     6    12    1
    14    12    13    1
    15    13    14    1
    16    14    15    1
    17    15    16    1
    18    16    17    1
    19    15    18    1
    20    18    19    1
    21    19    20    1
    22    20    21    1
    23    20    22    1
    24    22    23    1
    25     6     7    1
    26     7     8    1
    27     7     9   am
    28     9    10    2
    29     9    11    1
    30    30    31   ar
    31    31    32    1
    32    31    26   ar
    33    11     1    1
    34    11     4    1
    35    17    12    1
    36    22    15    1
    37    34    35    1
    38    23    24    1
    39    23    25    1
@<TRIPOS>MOLECULE
*****
 35 39 0 0 0
SMALL
GASTEIGER

@<TRIPOS>ATOM
      1 C         140.8154  140.1713  165.6864 C.2     1  UNL1        0.1283
      2 N         141.5609  138.9403  165.2632 N.2     1  UNL1       -0.0375
      3 N         141.6279  138.9313  163.7647 N.2     1  UNL1        0.0826
      4 C         140.9239  140.1566  163.2619 C.2     1  UNL1        0.3991
      5 N         140.6752  140.6736  161.8759 N.2     1  UNL1        0.0275
      6 C         139.9243  141.9569  161.6776 C.2     1  UNL1        0.4243
      7 N         139.4222  142.7232  162.8653 N.am    1  UNL1       -0.1358
      8 C         138.6713  144.0066  162.6669 C.3     1  UNL1        0.2167
      9 C         139.6709  142.2063  164.2512 C.2     1  UNL1        0.3055
     10 O         139.1687  142.9726  165.4389 O.2     1  UNL1       -0.2554
     11 C         140.4218  140.9229  164.4495 C.3     1  UNL1        0.2504
     12 N         139.6756  142.4739  160.2916 N.pl3   1  UNL1       -0.1900
     13 C         138.4692  142.0173  159.5261 C.3     1  UNL1        0.1682
     14 C         138.2205  142.5343  158.1402 C.3     1  UNL1        0.0444
     15 C         139.1782  143.5079  157.5198 C.3     1  UNL1        0.0490
     16 C         140.3846  143.9645  158.2853 C.3     1  UNL1        0.0444
     17 C         140.6333  143.4475  159.6712 C.3     1  UNL1        0.1682
     18 C         140.0429  144.4798  156.7729 C.3     1  UNL1        0.1435
     19 O         139.4202  144.7164  155.4288 O.3     1  UNL1       -0.3548
     20 C         138.1707  143.8906  155.3450 C.3     1  UNL1        0.1294
     21 C         137.2351  143.8235  154.1746 C.3     1  UNL1        0.0335
     22 C         138.0212  143.1438  156.6373 C.3     1  UNL1        0.0808
     23 N         136.9098  142.1987  156.9859 N.3     1  UNL1       -0.3202
     24 H         137.0570  141.8329  157.9266 H       1  UNL1        0.1189
     25 H         136.8979  141.4270  156.3190 H       1  UNL1        0.1189
     26 C         141.0214  142.0702  169.1652 C.ar    1  UNL1        0.1392
     27 N         139.9177  141.3939  169.9231 N.ar    1  UNL1       -0.2285
     28 C         139.1132  140.3101  169.2687 C.ar    1  UNL1        0.1004
     29 C         139.4125  139.9026  167.8565 C.ar    1  UNL1        0.0229
     30 C         140.5162  140.5789  167.0986 C.ar    1  UNL1        0.0333
     31 C         141.3207  141.6627  167.7530 C.ar    1  UNL1        0.0902
     32 CL        142.4244  142.3389  166.9951 Cl      1  UNL1       -0.0793
     33 C         143.1809  142.8454  170.3841 C.3     1  UNL1        0.1097
     34 N         141.8259  143.1540  169.8194 N.pl3   1  UNL1       -0.3160
     35 H         141.4646  144.0679  169.8783 H       1  UNL1        0.1483
@<TRIPOS>BOND
     1    33    34    1
     2    34    26    1
     3    26    27   ar
     4    27    28   ar
     5    28    29   ar
     6    29    30   ar
     7    30     1    1
     8     1     2    2
     9     2     3    1
    10     3     4    2
    11     4     5    1
    12     5     6    2
    13     6    12    1
    14    12    13    1
    15    13    14    1
    16    14    15    1
    17    15    16    1
    18    16    17    1
    19    15    18    1
    20    18    19    1
    21    19    20    1
    22    20    21    1
    23    20    22    1
    24    22    23    1
    25     6     7    1
    26     7     8    1
    27     7     9   am
    28     9    10    2
    29     9    11    1
    30    30    31   ar
    31    31    32    1
    32    31    26   ar
    33    11     1    1
    34    11     4    1
    35    17    12    1
    36    22    15    1
    37    34    35    1
    38    23    24    1
    39    23    25    1
