@<TRIPOS>MOLECULE
*****
 31 32 0 0 0
SMALL
GASTEIGER

@<TRIPOS>ATOM
      1 C         137.8840  141.7418  162.4951 C.3     1  UNL1        0.1700
      2 O         136.5726  141.2730  163.0520 O.3     1  UNL1       -0.3793
      3 H         135.9484  142.0151  163.0776 H       1  UNL1        0.2106
      4 C         138.0548  143.1737  162.0825 C.3     1  UNL1        0.1056
      5 N         138.4798  144.1993  163.0912 N.3     1  UNL1       -0.2702
      6 C         138.6463  144.9908  165.5601 C.3     1  UNL1        0.0188
      7 C         138.1668  143.9969  164.5442 C.3     1  UNL1        0.0722
      8 C         139.2177  145.4274  162.6470 C.3     1  UNL1        0.0769
      9 C         140.4977  145.2955  161.8762 C.3     1  UNL1        0.0437
     10 C         141.6711  144.5875  162.4863 C.ar    1  UNL1       -0.0199
     11 C         142.3918  145.1973  163.6519 C.ar    1  UNL1       -0.0033
     12 C         143.5650  144.4893  164.2619 C.ar    1  UNL1        0.0119
     13 C         144.0176  143.1715  163.7063 C.ar    1  UNL1        0.0682
     14 CL        145.1909  142.4636  164.3164 Cl      1  UNL1       -0.0814
     15 C         143.2969  142.5617  162.5407 C.ar    1  UNL1        0.0679
     16 CL        143.7495  141.2440  161.9851 Cl      1  UNL1       -0.0814
     17 C         142.1236  143.2697  161.9307 C.ar    1  UNL1        0.0080
     18 C         139.0248  140.7785  162.3507 C.3     1  UNL1        0.2358
     19 O         140.1550  140.8013  163.3367 O.3     1  UNL1       -0.4728
     20 C         139.8835  140.5735  164.7942 C.ar    1  UNL1        0.1388
     21 C         140.5308  141.4514  165.8239 C.ar    1  UNL1        0.0382
     22 C         140.2593  141.2235  167.2814 C.ar    1  UNL1        0.0190
     23 C         139.3404  140.1177  167.7092 C.ar    1  UNL1        0.0646
     24 C         138.6931  139.2399  166.6795 C.ar    1  UNL1        0.0190
     25 C         138.9646  139.4677  165.2220 C.ar    1  UNL1        0.0382
     26 N         139.0689  139.8898  169.1667 N.pl3   1  UNL1       -0.2187
     27 H         138.2790  139.3724  169.4453 H       1  UNL1        0.1734
     28 S         140.0009  140.4504  170.1999 S.O2    1  UNL1        0.0558
     29 C         140.9328  141.0109  171.2329 C.3     1  UNL1        0.1996
     30 O         139.0501  141.5850  170.4420 O.2     1  UNL1       -0.1544
     31 O         140.9516  139.3158  169.9577 O.2     1  UNL1       -0.1544
@<TRIPOS>BOND
     1     6     7    1
     2     7     5    1
     3     5     8    1
     4     8     9    1
     5     9    10    1
     6    10    11   ar
     7    11    12   ar
     8    12    13   ar
     9    13    14    1
    10    13    15   ar
    11    15    16    1
    12    15    17   ar
    13     5     4    1
    14     4     1    1
    15     1     2    1
    16     1    18    1
    17    18    19    1
    18    19    20    1
    19    20    21   ar
    20    21    22   ar
    21    22    23   ar
    22    23    26    1
    23    26    28    1
    24    28    29    1
    25    28    30    2
    26    28    31    2
    27    23    24   ar
    28    24    25   ar
    29    17    10   ar
    30    25    20   ar
    31     2     3    1
    32    26    27    1
@<TRIPOS>MOLECULE
*****
 31 32 0 0 0
SMALL
GASTEIGER

@<TRIPOS>ATOM
      1 C         137.8292  143.1996  162.4394 C.3     1  UNL1        0.1700
      2 O         138.0592  142.8998  160.9878 O.3     1  UNL1       -0.3793
      3 H         138.3380  143.7087  160.5308 H       1  UNL1        0.2106
      4 C         138.0398  144.5903  162.9604 C.3     1  UNL1        0.1056
      5 N         139.4188  145.1799  162.9884 N.3     1  UNL1       -0.2702
      6 C         140.3148  145.5445  160.5772 C.3     1  UNL1        0.0188
      7 C         139.8617  146.1040  161.8930 C.3     1  UNL1        0.0722
      8 C         140.3549  144.8454  164.1118 C.3     1  UNL1        0.0769
      9 C         141.8378  144.9301  163.9028 C.3     1  UNL1        0.0437
     10 C         142.6765  143.6881  163.9679 C.ar    1  UNL1       -0.0199
     11 C         144.0903  143.7630  164.4634 C.ar    1  UNL1       -0.0033
     12 C         144.9290  142.5211  164.5284 C.ar    1  UNL1        0.0119
     13 C         144.3538  141.2043  164.0981 C.ar    1  UNL1        0.0682
     14 CL        145.1926  139.9623  164.1632 Cl      1  UNL1       -0.0814
     15 C         142.9401  141.1294  163.6026 C.ar    1  UNL1        0.0679
     16 CL        142.3649  139.8126  163.1722 Cl      1  UNL1       -0.0814
     17 C         142.1014  142.3713  163.5375 C.ar    1  UNL1        0.0080
     18 C         137.3886  142.1087  163.3699 C.3     1  UNL1        0.2358
     19 O         138.3043  140.9574  163.6627 O.3     1  UNL1       -0.4728
     20 C         138.6995  140.6544  165.0776 C.ar    1  UNL1        0.1388
     21 C         139.6398  141.5686  165.8058 C.ar    1  UNL1        0.0382
     22 C         140.0350  141.2657  167.2208 C.ar    1  UNL1        0.0190
     23 C         139.4899  140.0485  167.9075 C.ar    1  UNL1        0.0646
     24 C         138.5496  139.1344  167.1793 C.ar    1  UNL1        0.0190
     25 C         138.1544  139.4374  165.7644 C.ar    1  UNL1        0.0382
     26 N         139.8851  139.7456  169.3224 N.pl3   1  UNL1       -0.2187
     27 H         139.8665  138.8176  169.6508 H       1  UNL1        0.1734
     28 S         140.3085  140.8565  170.2371 S.O2    1  UNL1        0.0558
     29 C         140.7320  141.9674  171.1517 C.3     1  UNL1        0.1996
     30 O         138.8711  141.2267  170.4531 O.2     1  UNL1       -0.1544
     31 O         141.7460  140.4864  170.0211 O.2     1  UNL1       -0.1544
@<TRIPOS>BOND
     1     6     7    1
     2     7     5    1
     3     5     8    1
     4     8     9    1
     5     9    10    1
     6    10    11   ar
     7    11    12   ar
     8    12    13   ar
     9    13    14    1
    10    13    15   ar
    11    15    16    1
    12    15    17   ar
    13     5     4    1
    14     4     1    1
    15     1     2    1
    16     1    18    1
    17    18    19    1
    18    19    20    1
    19    20    21   ar
    20    21    22   ar
    21    22    23   ar
    22    23    26    1
    23    26    28    1
    24    28    29    1
    25    28    30    2
    26    28    31    2
    27    23    24   ar
    28    24    25   ar
    29    17    10   ar
    30    25    20   ar
    31     2     3    1
    32    26    27    1
@<TRIPOS>MOLECULE
*****
 31 32 0 0 0
SMALL
GASTEIGER

@<TRIPOS>ATOM
      1 C         143.2803  144.0812  162.8590 C.3     1  UNL1        0.1700
      2 O         143.9294  145.4333  162.8433 O.3     1  UNL1       -0.3793
      3 H         143.2979  146.0914  162.5131 H       1  UNL1        0.2106
      4 C         141.8599  143.9259  162.4027 C.3     1  UNL1        0.1056
      5 N         140.7371  144.4277  163.2615 N.3     1  UNL1       -0.2702
      6 C         139.9582  146.0079  161.3521 C.3     1  UNL1        0.0188
      7 C         139.7250  145.3777  162.6931 C.3     1  UNL1        0.0722
      8 C         140.6264  143.9794  164.6887 C.3     1  UNL1        0.0769
      9 C         139.3580  143.3473  165.1800 C.3     1  UNL1        0.0437
     10 C         139.2061  141.8551  165.1579 C.ar    1  UNL1       -0.0199
     11 C         139.5203  141.0510  166.3845 C.ar    1  UNL1       -0.0033
     12 C         139.3684  139.5589  166.3624 C.ar    1  UNL1        0.0119
     13 C         138.9022  138.8709  165.1136 C.ar    1  UNL1        0.0682
     14 CL        138.7503  137.3788  165.0915 Cl      1  UNL1       -0.0814
     15 C         138.5880  139.6751  163.8870 C.ar    1  UNL1        0.0679
     16 CL        138.1218  138.9871  162.6383 Cl      1  UNL1       -0.0814
     17 C         138.7399  141.1671  163.9092 C.ar    1  UNL1        0.0080
     18 C         144.0516  142.8844  163.3311 C.3     1  UNL1        0.2358
     19 O         143.3627  141.5607  163.4838 O.3     1  UNL1       -0.4728
     20 C         143.1984  140.9534  164.8455 C.ar    1  UNL1        0.1388
     21 C         143.1298  139.4628  164.9985 C.ar    1  UNL1        0.0382
     22 C         142.9654  138.8555  166.3602 C.ar    1  UNL1        0.0190
     23 C         142.8697  139.7388  167.5688 C.ar    1  UNL1        0.0646
     24 C         142.9384  141.2294  167.4157 C.ar    1  UNL1        0.0190
     25 C         143.1027  141.8367  166.0540 C.ar    1  UNL1        0.0382
     26 N         142.7054  139.1315  168.9305 N.pl3   1  UNL1       -0.2187
     27 H         142.9665  138.1952  169.0867 H       1  UNL1        0.1734
     28 S         142.1433  139.9509  170.0543 S.O2    1  UNL1        0.0558
     29 C         141.5812  140.7702  171.1780 C.3     1  UNL1        0.1996
     30 O         140.7538  139.5700  169.6370 O.2     1  UNL1       -0.1544
     31 O         143.5328  140.3317  170.4716 O.2     1  UNL1       -0.1544
@<TRIPOS>BOND
     1     6     7    1
     2     7     5    1
     3     5     8    1
     4     8     9    1
     5     9    10    1
     6    10    11   ar
     7    11    12   ar
     8    12    13   ar
     9    13    14    1
    10    13    15   ar
    11    15    16    1
    12    15    17   ar
    13     5     4    1
    14     4     1    1
    15     1     2    1
    16     1    18    1
    17    18    19    1
    18    19    20    1
    19    20    21   ar
    20    21    22   ar
    21    22    23   ar
    22    23    26    1
    23    26    28    1
    24    28    29    1
    25    28    30    2
    26    28    31    2
    27    23    24   ar
    28    24    25   ar
    29    17    10   ar
    30    25    20   ar
    31     2     3    1
    32    26    27    1
@<TRIPOS>MOLECULE
*****
 31 32 0 0 0
SMALL
GASTEIGER

@<TRIPOS>ATOM
      1 C         142.2243  144.4695  162.9144 C.3     1  UNL1        0.1700
      2 O         142.7633  145.0094  161.6230 O.3     1  UNL1       -0.3793
      3 H         142.1787  145.7114  161.2969 H       1  UNL1        0.2106
      4 C         140.9593  145.0314  163.4924 C.3     1  UNL1        0.1056
      5 N         139.6452  144.3655  163.2100 N.3     1  UNL1       -0.2702
      6 C         138.6192  144.9772  165.5171 C.3     1  UNL1        0.0188
      7 C         138.4478  144.6801  164.0569 C.3     1  UNL1        0.0722
      8 C         139.5285  143.3851  162.0807 C.3     1  UNL1        0.0769
      9 C         138.4191  142.3756  162.0756 C.3     1  UNL1        0.0437
     10 C         138.5347  141.1300  162.9035 C.ar    1  UNL1       -0.0199
     11 C         137.9246  141.0803  164.2728 C.ar    1  UNL1       -0.0033
     12 C         138.0403  139.8348  165.1006 C.ar    1  UNL1        0.0119
     13 C         138.7660  138.6389  164.5590 C.ar    1  UNL1        0.0682
     14 CL        138.8816  137.3934  165.3869 Cl      1  UNL1       -0.0814
     15 C         139.3761  138.6886  163.1896 C.ar    1  UNL1        0.0679
     16 CL        140.1018  137.4928  162.6480 Cl      1  UNL1       -0.0814
     17 C         139.2605  139.9342  162.3619 C.ar    1  UNL1        0.0080
     18 C         142.9502  143.3677  163.6279 C.3     1  UNL1        0.2358
     19 O         142.3674  141.9860  163.6640 O.3     1  UNL1       -0.4728
     20 C         141.8401  141.4279  164.9526 C.ar    1  UNL1        0.1388
     21 C         141.0253  142.2936  165.8673 C.ar    1  UNL1        0.0382
     22 C         140.4981  141.7355  167.1559 C.ar    1  UNL1        0.0190
     23 C         140.7857  140.3115  167.5298 C.ar    1  UNL1        0.0646
     24 C         141.6005  139.4458  166.6152 C.ar    1  UNL1        0.0190
     25 C         142.1277  140.0040  165.3266 C.ar    1  UNL1        0.0382
     26 N         140.2584  139.7534  168.8184 N.pl3   1  UNL1       -0.2187
     27 H         139.7000  138.9426  168.8117 H       1  UNL1        0.1734
     28 S         140.5821  140.4305  170.1172 S.O2    1  UNL1        0.0558
     29 C         140.9057  141.1077  171.4159 C.3     1  UNL1        0.1996
     30 O         142.0335  140.1041  169.9258 O.2     1  UNL1       -0.1544
     31 O         139.1306  140.7570  170.3086 O.2     1  UNL1       -0.1544
@<TRIPOS>BOND
     1     6     7    1
     2     7     5    1
     3     5     8    1
     4     8     9    1
     5     9    10    1
     6    10    11   ar
     7    11    12   ar
     8    12    13   ar
     9    13    14    1
    10    13    15   ar
    11    15    16    1
    12    15    17   ar
    13     5     4    1
    14     4     1    1
    15     1     2    1
    16     1    18    1
    17    18    19    1
    18    19    20    1
    19    20    21   ar
    20    21    22   ar
    21    22    23   ar
    22    23    26    1
    23    26    28    1
    24    28    29    1
    25    28    30    2
    26    28    31    2
    27    23    24   ar
    28    24    25   ar
    29    17    10   ar
    30    25    20   ar
    31     2     3    1
    32    26    27    1
@<TRIPOS>MOLECULE
*****
 31 32 0 0 0
SMALL
GASTEIGER

@<TRIPOS>ATOM
      1 C         138.4395  141.8193  163.1229 C.3     1  UNL1        0.1700
      2 O         137.5050  142.2840  162.0455 O.3     1  UNL1       -0.3793
      3 H         136.5947  142.0476  162.2829 H       1  UNL1        0.2106
      4 C         137.8998  141.1089  164.3287 C.3     1  UNL1        0.1056
      5 N         138.2158  139.6592  164.5490 N.3     1  UNL1       -0.2702
      6 C         139.1478  139.6020  166.9734 C.3     1  UNL1        0.0188
      7 C         138.1933  139.0890  165.9362 C.3     1  UNL1        0.0722
      8 C         138.5542  138.7796  163.3819 C.3     1  UNL1        0.0769
      9 C         139.6578  137.7704  163.4986 C.3     1  UNL1        0.0437
     10 C         141.0700  138.2255  163.7192 C.ar    1  UNL1       -0.0199
     11 C         141.8027  138.9519  162.6304 C.ar    1  UNL1       -0.0033
     12 C         143.2148  139.4069  162.8510 C.ar    1  UNL1        0.0119
     13 C         143.8944  139.1355  164.1604 C.ar    1  UNL1        0.0682
     14 CL        145.3066  139.5905  164.3810 Cl      1  UNL1       -0.0814
     15 C         143.1617  138.4090  165.2492 C.ar    1  UNL1        0.0679
     16 CL        143.8413  138.1376  166.5586 Cl      1  UNL1       -0.0814
     17 C         141.7496  137.9540  165.0286 C.ar    1  UNL1        0.0080
     18 C         139.9136  142.0650  162.9945 C.3     1  UNL1        0.2358
     19 O         140.5689  143.1389  163.8114 O.3     1  UNL1       -0.4728
     20 C         141.0987  142.8231  165.1788 C.ar    1  UNL1        0.1388
     21 C         140.2662  143.1159  166.3917 C.ar    1  UNL1        0.0382
     22 C         140.7959  142.8001  167.7591 C.ar    1  UNL1        0.0190
     23 C         142.1582  142.1914  167.9134 C.ar    1  UNL1        0.0646
     24 C         142.9907  141.8986  166.7005 C.ar    1  UNL1        0.0190
     25 C         142.4609  142.2144  165.3332 C.ar    1  UNL1        0.0382
     26 N         142.6880  141.8756  169.2808 N.pl3   1  UNL1       -0.2187
     27 H         143.6325  142.0518  169.4956 H       1  UNL1        0.1734
     28 S         141.7786  141.2913  170.3209 S.O2    1  UNL1        0.0558
     29 C         140.8694  140.7069  171.3609 C.3     1  UNL1        0.1996
     30 O         141.8381  142.5751  171.0942 O.2     1  UNL1       -0.1544
     31 O         141.7192  140.0074  169.5475 O.2     1  UNL1       -0.1544
@<TRIPOS>BOND
     1     6     7    1
     2     7     5    1
     3     5     8    1
     4     8     9    1
     5     9    10    1
     6    10    11   ar
     7    11    12   ar
     8    12    13   ar
     9    13    14    1
    10    13    15   ar
    11    15    16    1
    12    15    17   ar
    13     5     4    1
    14     4     1    1
    15     1     2    1
    16     1    18    1
    17    18    19    1
    18    19    20    1
    19    20    21   ar
    20    21    22   ar
    21    22    23   ar
    22    23    26    1
    23    26    28    1
    24    28    29    1
    25    28    30    2
    26    28    31    2
    27    23    24   ar
    28    24    25   ar
    29    17    10   ar
    30    25    20   ar
    31     2     3    1
    32    26    27    1
@<TRIPOS>MOLECULE
*****
 31 32 0 0 0
SMALL
GASTEIGER

@<TRIPOS>ATOM
      1 C         144.6331  139.9099  163.5707 C.3     1  UNL1        0.1700
      2 O         144.7137  139.1753  162.2655 O.3     1  UNL1       -0.3793
      3 H         144.0353  138.4824  162.2420 H       1  UNL1        0.2106
      4 C         143.6044  139.5179  164.5896 C.3     1  UNL1        0.1056
      5 N         142.1864  139.2714  164.1672 N.3     1  UNL1       -0.2702
      6 C         140.4891  137.3209  164.4210 C.3     1  UNL1        0.0188
      7 C         141.7396  137.8839  163.8135 C.3     1  UNL1        0.0722
      8 C         141.2151  140.4125  164.0987 C.3     1  UNL1        0.0769
      9 C         141.3885  141.6001  164.9983 C.3     1  UNL1        0.0437
     10 C         141.0571  141.4907  166.4572 C.ar    1  UNL1       -0.0199
     11 C         140.8849  140.1408  167.0880 C.ar    1  UNL1       -0.0033
     12 C         140.5535  140.0315  168.5468 C.ar    1  UNL1        0.0119
     13 C         140.3942  141.2721  169.3748 C.ar    1  UNL1        0.0682
     14 CL        140.0628  141.1627  170.8337 Cl      1  UNL1       -0.0814
     15 C         140.5664  142.6220  168.7439 C.ar    1  UNL1        0.0679
     16 CL        140.4071  143.8626  169.5719 Cl      1  UNL1       -0.0814
     17 C         140.8978  142.7313  167.2851 C.ar    1  UNL1        0.0080
     18 C         145.5811  141.0365  163.8571 C.3     1  UNL1        0.2358
     19 O         145.5365  142.2840  163.0255 O.3     1  UNL1       -0.4728
     20 C         144.3062  143.1422  163.0260 C.ar    1  UNL1        0.1388
     21 C         144.0908  144.1436  164.1218 C.ar    1  UNL1        0.0382
     22 C         142.8605  145.0018  164.1223 C.ar    1  UNL1        0.0190
     23 C         141.8457  144.8585  163.0270 C.ar    1  UNL1        0.0646
     24 C         142.0611  143.8570  161.9313 C.ar    1  UNL1        0.0190
     25 C         143.2914  142.9989  161.9308 C.ar    1  UNL1        0.0382
     26 N         140.6154  145.7166  163.0275 N.pl3   1  UNL1       -0.2187
     27 H         140.6994  146.6975  163.0274 H       1  UNL1        0.1734
     28 S         139.2570  145.0802  163.0283 S.O2    1  UNL1        0.0558
     29 C         137.8987  144.4438  163.0290 C.3     1  UNL1        0.1996
     30 O         139.5076  144.5468  164.4077 O.2     1  UNL1       -0.1544
     31 O         139.0064  145.6135  161.6490 O.2     1  UNL1       -0.1544
@<TRIPOS>BOND
     1     6     7    1
     2     7     5    1
     3     5     8    1
     4     8     9    1
     5     9    10    1
     6    10    11   ar
     7    11    12   ar
     8    12    13   ar
     9    13    14    1
    10    13    15   ar
    11    15    16    1
    12    15    17   ar
    13     5     4    1
    14     4     1    1
    15     1     2    1
    16     1    18    1
    17    18    19    1
    18    19    20    1
    19    20    21   ar
    20    21    22   ar
    21    22    23   ar
    22    23    26    1
    23    26    28    1
    24    28    29    1
    25    28    30    2
    26    28    31    2
    27    23    24   ar
    28    24    25   ar
    29    17    10   ar
    30    25    20   ar
    31     2     3    1
    32    26    27    1
@<TRIPOS>MOLECULE
*****
 31 32 0 0 0
SMALL
GASTEIGER

@<TRIPOS>ATOM
      1 C         138.1958  144.1837  164.1994 C.3     1  UNL1        0.1700
      2 O         138.7232  145.1579  165.2107 O.3     1  UNL1       -0.3793
      3 H         138.7759  144.7269  166.0780 H       1  UNL1        0.2106
      4 C         137.8456  142.7860  164.6162 C.3     1  UNL1        0.1056
      5 N         138.8337  141.6747  164.4190 N.3     1  UNL1       -0.2702
      6 C         138.1627  139.5657  165.7796 C.3     1  UNL1        0.0188
      7 C         138.3751  140.2472  164.4604 C.3     1  UNL1        0.0722
      8 C         140.2805  141.9911  164.1803 C.3     1  UNL1        0.0769
      9 C         141.1380  142.4782  165.3105 C.3     1  UNL1        0.0437
     10 C         141.3189  141.6298  166.5343 C.ar    1  UNL1       -0.0199
     11 C         142.4698  140.6716  166.6193 C.ar    1  UNL1       -0.0033
     12 C         142.6506  139.8233  167.8431 C.ar    1  UNL1        0.0119
     13 C         141.6805  139.9333  168.9819 C.ar    1  UNL1        0.0682
     14 CL        141.8614  139.0849  170.2057 Cl      1  UNL1       -0.0814
     15 C         140.5297  140.8915  168.8969 C.ar    1  UNL1        0.0679
     16 CL        139.5596  141.0014  170.0358 Cl      1  UNL1       -0.0814
     17 C         140.3488  141.7398  167.6732 C.ar    1  UNL1        0.0080
     18 C         138.0186  144.6071  162.7714 C.3     1  UNL1        0.2358
     19 O         139.1103  145.3612  162.0718 O.3     1  UNL1       -0.4728
     20 C         140.5343  144.9061  162.1952 C.ar    1  UNL1        0.1388
     21 C         141.4352  145.5308  163.2190 C.ar    1  UNL1        0.0382
     22 C         142.8592  145.0757  163.3424 C.ar    1  UNL1        0.0190
     23 C         143.3822  143.9960  162.4420 C.ar    1  UNL1        0.0646
     24 C         142.4813  143.3714  161.4182 C.ar    1  UNL1        0.0190
     25 C         141.0573  143.8265  161.2948 C.ar    1  UNL1        0.0382
     26 N         144.8062  143.5409  162.5654 N.pl3   1  UNL1       -0.2187
     27 H         145.5342  144.0998  162.2094 H       1  UNL1        0.1734
     28 S         145.1209  142.2341  163.2313 S.O2    1  UNL1        0.0558
     29 C         145.4355  140.9274  163.8972 C.3     1  UNL1        0.1996
     30 O         145.4410  141.6307  161.8959 O.2     1  UNL1       -0.1544
     31 O         144.8007  142.8375  164.5667 O.2     1  UNL1       -0.1544
@<TRIPOS>BOND
     1     6     7    1
     2     7     5    1
     3     5     8    1
     4     8     9    1
     5     9    10    1
     6    10    11   ar
     7    11    12   ar
     8    12    13   ar
     9    13    14    1
    10    13    15   ar
    11    15    16    1
    12    15    17   ar
    13     5     4    1
    14     4     1    1
    15     1     2    1
    16     1    18    1
    17    18    19    1
    18    19    20    1
    19    20    21   ar
    20    21    22   ar
    21    22    23   ar
    22    23    26    1
    23    26    28    1
    24    28    29    1
    25    28    30    2
    26    28    31    2
    27    23    24   ar
    28    24    25   ar
    29    17    10   ar
    30    25    20   ar
    31     2     3    1
    32    26    27    1
@<TRIPOS>MOLECULE
*****
 31 32 0 0 0
SMALL
GASTEIGER

@<TRIPOS>ATOM
      1 C         137.6556  140.1055  162.3902 C.3     1  UNL1        0.1700
      2 O         137.0380  139.8520  161.0470 O.3     1  UNL1       -0.3793
      3 H         136.5985  140.6588  160.7358 H       1  UNL1        0.2106
      4 C         137.5291  141.4558  163.0310 C.3     1  UNL1        0.1056
      5 N         138.2873  142.6242  162.4742 N.3     1  UNL1       -0.2702
      6 C         139.7161  143.5124  160.4945 C.3     1  UNL1        0.0188
      7 C         139.3473  142.4044  161.4359 C.3     1  UNL1        0.0722
      8 C         137.9856  144.0124  162.9559 C.3     1  UNL1        0.0769
      9 C         138.6754  144.5500  164.1745 C.3     1  UNL1        0.0437
     10 C         140.1095  144.1996  164.4405 C.ar    1  UNL1       -0.0199
     11 C         140.4495  143.1588  165.4658 C.ar    1  UNL1       -0.0033
     12 C         141.8835  142.8085  165.7317 C.ar    1  UNL1        0.0119
     13 C         142.9775  143.4989  164.9724 C.ar    1  UNL1        0.0682
     14 CL        144.4116  143.1485  165.2384 Cl      1  UNL1       -0.0814
     15 C         142.6375  144.5397  163.9472 C.ar    1  UNL1        0.0679
     16 CL        143.7315  145.2301  163.1879 Cl      1  UNL1       -0.0814
     17 C         141.2034  144.8900  163.6813 C.ar    1  UNL1        0.0080
     18 C         138.3996  139.0087  163.0927 C.3     1  UNL1        0.2358
     19 O         139.8210  139.2220  163.5216 O.3     1  UNL1       -0.4728
     20 C         140.1443  139.4255  164.9721 C.ar    1  UNL1        0.1388
     21 C         141.5527  139.2513  165.4582 C.ar    1  UNL1        0.0382
     22 C         141.8759  139.4548  166.9088 C.ar    1  UNL1        0.0190
     23 C         140.7908  139.8325  167.8732 C.ar    1  UNL1        0.0646
     24 C         139.3826  140.0066  167.3870 C.ar    1  UNL1        0.0190
     25 C         139.0593  139.8031  165.9365 C.ar    1  UNL1        0.0382
     26 N         141.1141  140.0359  169.3237 N.pl3   1  UNL1       -0.2187
     27 H         141.6519  139.3676  169.8067 H       1  UNL1        0.1734
     28 S         140.6179  141.2579  170.0385 S.O2    1  UNL1        0.0558
     29 C         140.1217  142.4797  170.7532 C.3     1  UNL1        0.1996
     30 O         139.7116  140.4019  170.8727 O.2     1  UNL1       -0.1544
     31 O         141.5241  142.1138  169.2042 O.2     1  UNL1       -0.1544
@<TRIPOS>BOND
     1     6     7    1
     2     7     5    1
     3     5     8    1
     4     8     9    1
     5     9    10    1
     6    10    11   ar
     7    11    12   ar
     8    12    13   ar
     9    13    14    1
    10    13    15   ar
    11    15    16    1
    12    15    17   ar
    13     5     4    1
    14     4     1    1
    15     1     2    1
    16     1    18    1
    17    18    19    1
    18    19    20    1
    19    20    21   ar
    20    21    22   ar
    21    22    23   ar
    22    23    26    1
    23    26    28    1
    24    28    29    1
    25    28    30    2
    26    28    31    2
    27    23    24   ar
    28    24    25   ar
    29    17    10   ar
    30    25    20   ar
    31     2     3    1
    32    26    27    1
@<TRIPOS>MOLECULE
*****
 31 32 0 0 0
SMALL
GASTEIGER

@<TRIPOS>ATOM
      1 C         138.6892  143.8753  162.6518 C.3     1  UNL1        0.1700
      2 O         137.3132  144.4725  162.6537 O.3     1  UNL1       -0.3793
      3 H         136.7238  143.9281  162.1087 H       1  UNL1        0.2106
      4 C         138.9611  142.6206  161.8762 C.3     1  UNL1        0.1056
      5 N         138.3484  141.3224  162.3110 N.3     1  UNL1       -0.2702
      6 C         138.4210  139.3871  160.5792 C.3     1  UNL1        0.0188
      7 C         137.6530  140.4486  161.3096 C.3     1  UNL1        0.0722
      8 C         138.4311  140.8979  163.7474 C.3     1  UNL1        0.0769
      9 C         139.1174  139.6149  164.1120 C.3     1  UNL1        0.0437
     10 C         140.6148  139.5588  164.1817 C.ar    1  UNL1       -0.0199
     11 C         141.4379  140.0320  163.0204 C.ar    1  UNL1       -0.0033
     12 C         142.9352  139.9758  163.0902 C.ar    1  UNL1        0.0119
     13 C         143.6094  139.4465  164.3211 C.ar    1  UNL1        0.0682
     14 CL        145.1068  139.3903  164.3908 Cl      1  UNL1       -0.0814
     15 C         142.7863  138.9733  165.4824 C.ar    1  UNL1        0.0679
     16 CL        143.4604  138.4439  166.7133 Cl      1  UNL1       -0.0814
     17 C         141.2890  139.0294  165.4126 C.ar    1  UNL1        0.0080
     18 C         139.7932  144.5328  163.4257 C.3     1  UNL1        0.2358
     19 O         141.1474  143.8913  163.4926 O.3     1  UNL1       -0.4728
     20 C         141.6379  143.3078  164.7844 C.ar    1  UNL1        0.1388
     21 C         143.1093  143.1315  165.0170 C.ar    1  UNL1        0.0382
     22 C         143.5998  142.5479  166.3088 C.ar    1  UNL1        0.0190
     23 C         142.6189  142.1407  167.3681 C.ar    1  UNL1        0.0646
     24 C         141.1476  142.3170  167.1356 C.ar    1  UNL1        0.0190
     25 C         140.6571  142.9005  165.8437 C.ar    1  UNL1        0.0382
     26 N         143.1094  141.5572  168.6600 N.pl3   1  UNL1       -0.2187
     27 H         143.9529  141.0499  168.6822 H       1  UNL1        0.1734
     28 S         142.3147  141.7465  169.9181 S.O2    1  UNL1        0.0558
     29 C         141.5201  141.9359  171.1761 C.3     1  UNL1        0.1996
     30 O         141.8131  140.3368  169.8135 O.2     1  UNL1       -0.1544
     31 O         142.8163  143.1563  170.0227 O.2     1  UNL1       -0.1544
@<TRIPOS>BOND
     1     6     7    1
     2     7     5    1
     3     5     8    1
     4     8     9    1
     5     9    10    1
     6    10    11   ar
     7    11    12   ar
     8    12    13   ar
     9    13    14    1
    10    13    15   ar
    11    15    16    1
    12    15    17   ar
    13     5     4    1
    14     4     1    1
    15     1     2    1
    16     1    18    1
    17    18    19    1
    18    19    20    1
    19    20    21   ar
    20    21    22   ar
    21    22    23   ar
    22    23    26    1
    23    26    28    1
    24    28    29    1
    25    28    30    2
    26    28    31    2
    27    23    24   ar
    28    24    25   ar
    29    17    10   ar
    30    25    20   ar
    31     2     3    1
    32    26    27    1
