@<TRIPOS>MOLECULE
*****
 32 35 0 0 0
SMALL
GASTEIGER

@<TRIPOS>ATOM
      1 C         140.0142  143.1068  164.7455 C.ar    1  UNL1       -0.0177
      2 C         138.8677  142.2536  164.2898 C.ar    1  UNL1       -0.0043
      3 C         138.4741  141.0415  165.0808 C.ar    1  UNL1       -0.0046
      4 C         139.2268  140.6826  166.3277 C.ar    1  UNL1       -0.0222
      5 C         140.3733  141.5357  166.7834 C.ar    1  UNL1       -0.0046
      6 C         140.7669  142.7478  165.9924 C.ar    1  UNL1       -0.0043
      7 C         140.4079  144.3189  163.9545 C.3     1  UNL1        0.0570
      8 C         142.8292  144.4669  162.8318 C.ar    1  UNL1        0.0782
      9 N         143.3813  144.2026  161.4623 N.ar    1  UNL1       -0.1687
     10 N         142.2495  143.7579  160.5841 N.ar    1  UNL1       -0.2168
     11 C         142.1969  143.3613  159.1385 C.ar    1  UNL1        0.0636
     12 C         143.4485  143.3718  158.3118 C.3     1  UNL1        0.0522
     13 C         140.8926  142.9540  158.5196 C.ar    1  UNL1        0.0296
     14 C         139.6410  142.9435  159.3463 C.ar    1  UNL1        0.0622
     15 C         138.3368  142.5362  158.7272 C.3     1  UNL1        0.0522
     16 N         139.6937  143.3402  160.7919 N.ar    1  UNL1       -0.2311
     17 C         140.9979  143.7474  161.4108 C.ar    1  UNL1        0.1604
     18 C         141.3562  144.1856  162.7999 C.ar    1  UNL1        0.0332
     19 C         144.2410  143.9280  164.9451 C.3     1  UNL1        0.0067
     20 C         143.6126  144.9311  164.0238 C.3     1  UNL1        0.0474
     21 C         138.8331  139.4705  167.1187 C.3     1  UNL1        0.0278
     22 C         137.9290  138.4392  166.5109 C.3     1  UNL1        0.0220
     23 C         138.5109  137.2980  165.7307 C.3     1  UNL1        0.0725
     24 N         139.3628  137.5700  164.5264 N.3     1  UNL1       -0.2703
     25 C         140.8568  137.6035  164.6566 C.3     1  UNL1        0.0897
     26 C         141.7087  137.8756  163.4524 C.3     1  UNL1        0.0896
     27 N         141.0666  138.1141  162.1178 N.3     1  UNL1       -0.2716
     28 C         139.5726  138.0805  161.9876 C.3     1  UNL1        0.0896
     29 C         138.7208  137.8085  163.1919 C.3     1  UNL1        0.0897
     30 C         141.9185  138.3861  160.9135 C.3     1  UNL1        0.0577
     31 C         143.2139  137.6525  160.7300 C.3     1  UNL1        0.0173
     32 C         141.4749  139.3917  159.8928 C.3     1  UNL1        0.0173
@<TRIPOS>BOND
     1    19    20    1
     2    20     8    1
     3     8     9   ar
     4     9    10   ar
     5    10    11   ar
     6    11    12    1
     7    11    13   ar
     8    13    14   ar
     9    14    15    1
    10    14    16   ar
    11    16    17   ar
    12    17    18   ar
    13    18     7    1
    14     7     1    1
    15     1     2   ar
    16     2     3   ar
    17     3     4   ar
    18     4    21    1
    19    21    22    1
    20    22    23    1
    21    23    24    1
    22    24    25    1
    23    25    26    1
    24    26    27    1
    25    27    30    1
    26    30    31    1
    27    30    32    1
    28    27    28    1
    29    28    29    1
    30     4     5   ar
    31     5     6   ar
    32    18     8   ar
    33     6     1   ar
    34    17    10   ar
    35    29    24    1
@<TRIPOS>MOLECULE
*****
 32 35 0 0 0
SMALL
GASTEIGER

@<TRIPOS>ATOM
      1 C         142.4288  142.4311  165.7926 C.ar    1  UNL1       -0.0177
      2 C         142.7666  141.0663  166.3154 C.ar    1  UNL1       -0.0043
      3 C         141.7286  140.2634  167.0418 C.ar    1  UNL1       -0.0046
      4 C         140.3527  140.8251  167.2454 C.ar    1  UNL1       -0.0222
      5 C         140.0149  142.1899  166.7226 C.ar    1  UNL1       -0.0046
      6 C         141.0530  142.9928  165.9963 C.ar    1  UNL1       -0.0043
      7 C         143.4669  143.2342  165.0662 C.3     1  UNL1        0.0570
      8 C         144.6185  142.3247  162.8320 C.ar    1  UNL1        0.0782
      9 N         144.3720  142.5035  161.3633 N.ar    1  UNL1       -0.1687
     10 N         143.1923  143.4153  161.1988 N.ar    1  UNL1       -0.2168
     11 C         142.4953  143.9449  159.9808 C.ar    1  UNL1        0.0636
     12 C         142.9779  143.5603  158.6137 C.3     1  UNL1        0.0522
     13 C         141.3156  144.8593  160.1300 C.ar    1  UNL1        0.0296
     14 C         140.8330  145.2440  161.4971 C.ar    1  UNL1        0.0622
     15 C         139.6532  146.1584  161.6462 C.3     1  UNL1        0.0522
     16 N         141.5300  144.7143  162.7151 N.ar    1  UNL1       -0.2311
     17 C         142.7097  143.8000  162.5659 C.ar    1  UNL1        0.1604
     18 C         143.5911  143.1259  163.5753 C.ar    1  UNL1        0.0332
     19 C         145.3623  140.1853  164.1047 C.3     1  UNL1        0.0067
     20 C         145.7020  141.4909  163.4491 C.3     1  UNL1        0.0474
     21 C         139.3147  140.0221  167.9718 C.3     1  UNL1        0.0278
     22 C         138.5014  139.0022  167.2311 C.3     1  UNL1        0.0220
     23 C         138.1433  139.2296  165.7924 C.3     1  UNL1        0.0725
     24 N         139.2039  139.1534  164.7344 N.3     1  UNL1       -0.2703
     25 C         140.0923  137.9479  164.6486 C.3     1  UNL1        0.0897
     26 C         141.1530  137.8717  163.5906 C.3     1  UNL1        0.0896
     27 N         141.3252  139.0010  162.6185 N.3     1  UNL1       -0.2716
     28 C         140.4367  140.2066  162.7043 C.3     1  UNL1        0.0896
     29 C         139.3761  140.2827  163.7623 C.3     1  UNL1        0.0897
     30 C         142.3858  138.9248  161.5605 C.3     1  UNL1        0.0577
     31 C         143.5450  137.9875  161.7267 C.3     1  UNL1        0.0173
     32 C         142.2872  139.7860  160.3363 C.3     1  UNL1        0.0173
@<TRIPOS>BOND
     1    19    20    1
     2    20     8    1
     3     8     9   ar
     4     9    10   ar
     5    10    11   ar
     6    11    12    1
     7    11    13   ar
     8    13    14   ar
     9    14    15    1
    10    14    16   ar
    11    16    17   ar
    12    17    18   ar
    13    18     7    1
    14     7     1    1
    15     1     2   ar
    16     2     3   ar
    17     3     4   ar
    18     4    21    1
    19    21    22    1
    20    22    23    1
    21    23    24    1
    22    24    25    1
    23    25    26    1
    24    26    27    1
    25    27    30    1
    26    30    31    1
    27    30    32    1
    28    27    28    1
    29    28    29    1
    30     4     5   ar
    31     5     6   ar
    32    18     8   ar
    33     6     1   ar
    34    17    10   ar
    35    29    24    1
@<TRIPOS>MOLECULE
*****
 32 35 0 0 0
SMALL
GASTEIGER

@<TRIPOS>ATOM
      1 C         138.4434  139.9560  162.9443 C.ar    1  UNL1       -0.0177
      2 C         138.5738  140.9289  161.8100 C.ar    1  UNL1       -0.0043
      3 C         138.9866  140.4457  160.4513 C.ar    1  UNL1       -0.0046
      4 C         139.2689  138.9897  160.2268 C.ar    1  UNL1       -0.0222
      5 C         139.1385  138.0169  161.3611 C.ar    1  UNL1       -0.0046
      6 C         138.7258  138.5001  162.7198 C.ar    1  UNL1       -0.0043
      7 C         138.0306  140.4392  164.3031 C.3     1  UNL1        0.0570
      8 C         138.8634  139.5482  166.6817 C.ar    1  UNL1        0.0782
      9 N         140.0579  139.8054  167.5517 N.ar    1  UNL1       -0.1687
     10 N         140.9345  140.8020  166.8528 N.ar    1  UNL1       -0.2168
     11 C         142.2428  141.4291  167.2338 C.ar    1  UNL1        0.0636
     12 C         142.8955  141.0704  168.5358 C.3     1  UNL1        0.0522
     13 C         142.8982  142.4150  166.3127 C.ar    1  UNL1        0.0296
     14 C         142.2455  142.7736  165.0107 C.ar    1  UNL1        0.0622
     15 C         142.9011  143.7595  164.0896 C.3     1  UNL1        0.0522
     16 N         140.9373  142.1465  164.6297 N.ar    1  UNL1       -0.2311
     17 C         140.2818  141.1607  165.5508 C.ar    1  UNL1        0.1604
     18 C         139.0018  140.3858  165.4451 C.ar    1  UNL1        0.0332
     19 C         137.7668  137.1997  166.5038 C.3     1  UNL1        0.0067
     20 C         137.7296  138.6169  166.9935 C.3     1  UNL1        0.0474
     21 C         139.6817  138.5066  158.8681 C.3     1  UNL1        0.0278
     22 C         140.9072  139.0703  158.2119 C.3     1  UNL1        0.0220
     23 C         142.2622  138.5345  158.5680 C.3     1  UNL1        0.0725
     24 N         142.9185  138.9481  159.8518 N.3     1  UNL1       -0.2703
     25 C         142.9726  137.9938  161.0079 C.3     1  UNL1        0.0897
     26 C         143.6289  138.4074  162.2917 C.3     1  UNL1        0.0896
     27 N         144.2311  139.7754  162.4196 N.3     1  UNL1       -0.2716
     28 C         144.1770  140.7296  161.2635 C.3     1  UNL1        0.0896
     29 C         143.5207  140.3160  159.9797 C.3     1  UNL1        0.0897
     30 C         144.8873  140.1889  163.7034 C.3     1  UNL1        0.0577
     31 C         144.6962  139.3656  164.9426 C.3     1  UNL1        0.0173
     32 C         145.7346  141.4258  163.7480 C.3     1  UNL1        0.0173
@<TRIPOS>BOND
     1    19    20    1
     2    20     8    1
     3     8     9   ar
     4     9    10   ar
     5    10    11   ar
     6    11    12    1
     7    11    13   ar
     8    13    14   ar
     9    14    15    1
    10    14    16   ar
    11    16    17   ar
    12    17    18   ar
    13    18     7    1
    14     7     1    1
    15     1     2   ar
    16     2     3   ar
    17     3     4   ar
    18     4    21    1
    19    21    22    1
    20    22    23    1
    21    23    24    1
    22    24    25    1
    23    25    26    1
    24    26    27    1
    25    27    30    1
    26    30    31    1
    27    30    32    1
    28    27    28    1
    29    28    29    1
    30     4     5   ar
    31     5     6   ar
    32    18     8   ar
    33     6     1   ar
    34    17    10   ar
    35    29    24    1
@<TRIPOS>MOLECULE
*****
 32 35 0 0 0
SMALL
GASTEIGER

@<TRIPOS>ATOM
      1 C         138.2724  141.0063  164.7918 C.ar    1  UNL1       -0.0177
      2 C         139.2500  142.0281  165.2923 C.ar    1  UNL1       -0.0043
      3 C         140.0814  141.7386  166.5068 C.ar    1  UNL1       -0.0046
      4 C         139.9353  140.4276  167.2208 C.ar    1  UNL1       -0.0222
      5 C         138.9577  139.4058  166.7202 C.ar    1  UNL1       -0.0046
      6 C         138.1263  139.6953  165.5058 C.ar    1  UNL1       -0.0043
      7 C         137.4410  141.2957  163.5773 C.3     1  UNL1        0.0570
      8 C         138.1974  140.2125  161.2536 C.ar    1  UNL1        0.0782
      9 N         138.9110  140.7127  160.0327 N.ar    1  UNL1       -0.1687
     10 N         139.2392  142.1604  160.2480 N.ar    1  UNL1       -0.2168
     11 C         139.9371  143.1704  159.3861 C.ar    1  UNL1        0.0636
     12 C         140.4479  142.7757  158.0321 C.3     1  UNL1        0.0522
     13 C         140.1242  144.5749  159.8782 C.ar    1  UNL1        0.0296
     14 C         139.6135  144.9695  161.2323 C.ar    1  UNL1        0.0622
     15 C         139.8007  146.3741  161.7244 C.3     1  UNL1        0.0522
     16 N         138.9156  143.9596  162.0942 N.ar    1  UNL1       -0.2311
     17 C         138.7284  142.5550  161.6021 C.ar    1  UNL1        0.1604
     18 C         138.0846  141.3512  162.2235 C.ar    1  UNL1        0.0332
     19 C         138.4424  137.8694  162.3489 C.3     1  UNL1        0.0067
     20 C         137.6864  138.8185  161.4671 C.3     1  UNL1        0.0474
     21 C         140.7667  140.1382  168.4352 C.3     1  UNL1        0.0278
     22 C         142.2618  140.0854  168.3255 C.3     1  UNL1        0.0220
     23 C         142.9121  139.0889  167.4123 C.3     1  UNL1        0.0725
     24 N         142.7447  139.2122  165.9268 N.3     1  UNL1       -0.2703
     25 C         142.0983  138.1034  165.1504 C.3     1  UNL1        0.0897
     26 C         141.9309  138.2267  163.6648 C.3     1  UNL1        0.0896
     27 N         142.4098  139.4588  162.9557 N.3     1  UNL1       -0.2716
     28 C         143.0561  140.5675  163.7322 C.3     1  UNL1        0.0896
     29 C         143.2235  140.4442  165.2177 C.3     1  UNL1        0.0897
     30 C         142.2423  139.5820  161.4702 C.3     1  UNL1        0.0577
     31 C         142.5866  140.8690  160.7809 C.3     1  UNL1        0.0173
     32 C         141.7305  138.4183  160.6741 C.3     1  UNL1        0.0173
@<TRIPOS>BOND
     1    19    20    1
     2    20     8    1
     3     8     9   ar
     4     9    10   ar
     5    10    11   ar
     6    11    12    1
     7    11    13   ar
     8    13    14   ar
     9    14    15    1
    10    14    16   ar
    11    16    17   ar
    12    17    18   ar
    13    18     7    1
    14     7     1    1
    15     1     2   ar
    16     2     3   ar
    17     3     4   ar
    18     4    21    1
    19    21    22    1
    20    22    23    1
    21    23    24    1
    22    24    25    1
    23    25    26    1
    24    26    27    1
    25    27    30    1
    26    30    31    1
    27    30    32    1
    28    27    28    1
    29    28    29    1
    30     4     5   ar
    31     5     6   ar
    32    18     8   ar
    33     6     1   ar
    34    17    10   ar
    35    29    24    1
@<TRIPOS>MOLECULE
*****
 32 35 0 0 0
SMALL
GASTEIGER

@<TRIPOS>ATOM
      1 C         142.8760  143.3436  165.0312 C.ar    1  UNL1       -0.0177
      2 C         141.3818  143.4420  164.9431 C.ar    1  UNL1       -0.0043
      3 C         140.5272  142.8758  166.0380 C.ar    1  UNL1       -0.0046
      4 C         141.1666  142.2112  167.2210 C.ar    1  UNL1       -0.0222
      5 C         142.6608  142.1129  167.3091 C.ar    1  UNL1       -0.0046
      6 C         143.5154  142.6791  166.2142 C.ar    1  UNL1       -0.0043
      7 C         143.7308  143.9099  163.9362 C.3     1  UNL1        0.0570
      8 C         144.9041  141.9331  162.5721 C.ar    1  UNL1        0.0782
      9 N         144.8482  141.4434  161.1554 N.ar    1  UNL1       -0.1687
     10 N         143.8923  142.3183  160.3998 N.ar    1  UNL1       -0.2168
     11 C         143.4398  142.3098  158.9697 C.ar    1  UNL1        0.0636
     12 C         143.9748  141.2793  158.0200 C.3     1  UNL1        0.0522
     13 C         142.4524  143.3316  158.4894 C.ar    1  UNL1        0.0296
     14 C         141.9175  144.3621  159.4392 C.ar    1  UNL1        0.0622
     15 C         140.9300  145.3840  158.9588 C.3     1  UNL1        0.0522
     16 N         142.3699  144.3706  160.8693 N.ar    1  UNL1       -0.2311
     17 C         143.3573  143.3487  161.3496 C.ar    1  UNL1        0.1604
     18 C         143.9827  143.1107  162.6921 C.ar    1  UNL1        0.0332
     19 C         145.3311  140.0517  164.3121 C.3     1  UNL1        0.0067
     20 C         145.7354  141.3481  163.6751 C.3     1  UNL1        0.0474
     21 C         140.3119  141.6450  168.3159 C.3     1  UNL1        0.0278
     22 C         140.0611  140.1677  168.3838 C.3     1  UNL1        0.0220
     23 C         139.0382  139.5385  167.4851 C.3     1  UNL1        0.0725
     24 N         139.2657  139.4978  166.0030 N.3     1  UNL1       -0.2703
     25 C         138.2179  140.0260  165.0686 C.3     1  UNL1        0.0897
     26 C         138.4454  139.9853  163.5865 C.3     1  UNL1        0.0896
     27 N         139.7208  139.4163  163.0388 N.3     1  UNL1       -0.2716
     28 C         140.7685  138.8880  163.9732 C.3     1  UNL1        0.0896
     29 C         140.5409  138.9288  165.4553 C.3     1  UNL1        0.0897
     30 C         139.9483  139.3755  161.5567 C.3     1  UNL1        0.0577
     31 C         139.3092  138.3001  160.7291 C.3     1  UNL1        0.0173
     32 C         140.8149  140.4102  160.9023 C.3     1  UNL1        0.0173
@<TRIPOS>BOND
     1    19    20    1
     2    20     8    1
     3     8     9   ar
     4     9    10   ar
     5    10    11   ar
     6    11    12    1
     7    11    13   ar
     8    13    14   ar
     9    14    15    1
    10    14    16   ar
    11    16    17   ar
    12    17    18   ar
    13    18     7    1
    14     7     1    1
    15     1     2   ar
    16     2     3   ar
    17     3     4   ar
    18     4    21    1
    19    21    22    1
    20    22    23    1
    21    23    24    1
    22    24    25    1
    23    25    26    1
    24    26    27    1
    25    27    30    1
    26    30    31    1
    27    30    32    1
    28    27    28    1
    29    28    29    1
    30     4     5   ar
    31     5     6   ar
    32    18     8   ar
    33     6     1   ar
    34    17    10   ar
    35    29    24    1
@<TRIPOS>MOLECULE
*****
 32 35 0 0 0
SMALL
GASTEIGER

@<TRIPOS>ATOM
      1 C         138.1260  140.0855  162.7531 C.ar    1  UNL1       -0.0177
      2 C         138.3039  140.1791  164.2396 C.ar    1  UNL1       -0.0043
      3 C         138.1707  141.5047  164.9287 C.ar    1  UNL1       -0.0046
      4 C         137.8597  142.7366  164.1315 C.ar    1  UNL1       -0.0222
      5 C         137.6818  142.6430  162.6450 C.ar    1  UNL1       -0.0046
      6 C         137.8150  141.3174  161.9559 C.ar    1  UNL1       -0.0043
      7 C         138.2592  138.7598  162.0638 C.3     1  UNL1        0.0570
      8 C         140.7363  137.7988  161.7718 C.ar    1  UNL1        0.0782
      9 N         141.7032  137.6877  160.6304 N.ar    1  UNL1       -0.1687
     10 N         141.0519  138.2731  159.4125 N.ar    1  UNL1       -0.2168
     11 C         141.5288  138.4366  157.9998 C.ar    1  UNL1        0.0636
     12 C         142.8982  137.9637  157.6111 C.3     1  UNL1        0.0522
     13 C         140.6364  139.0730  156.9759 C.ar    1  UNL1        0.0296
     14 C         139.2670  139.5458  157.3646 C.ar    1  UNL1        0.0622
     15 C         138.3745  140.1822  156.3406 C.3     1  UNL1        0.0522
     16 N         138.7900  139.3823  158.7773 N.ar    1  UNL1       -0.2311
     17 C         139.6825  138.7459  159.8013 C.ar    1  UNL1        0.1604
     18 C         139.4875  138.4528  161.2594 C.ar    1  UNL1        0.0332
     19 C         141.5069  138.2960  164.2026 C.3     1  UNL1        0.0067
     20 C         140.9762  137.3370  163.1786 C.3     1  UNL1        0.0474
     21 C         137.7265  144.0622  164.8208 C.3     1  UNL1        0.0278
     22 C         138.9514  144.8641  165.1476 C.3     1  UNL1        0.0220
     23 C         139.9671  145.1499  164.0815 C.3     1  UNL1        0.0725
     24 N         141.0940  144.1892  163.8425 N.3     1  UNL1       -0.2703
     25 C         141.4584  143.1839  164.8945 C.3     1  UNL1        0.0897
     26 C         142.5853  142.2231  164.6554 C.3     1  UNL1        0.0896
     27 N         143.3477  142.2677  163.3643 N.3     1  UNL1       -0.2716
     28 C         142.9833  143.2729  162.3124 C.3     1  UNL1        0.0896
     29 C         141.8564  144.2337  162.5515 C.3     1  UNL1        0.0897
     30 C         144.4746  141.3069  163.1253 C.3     1  UNL1        0.0577
     31 C         144.2401  140.0599  162.3253 C.3     1  UNL1        0.0173
     32 C         145.8359  141.5932  163.6863 C.3     1  UNL1        0.0173
@<TRIPOS>BOND
     1    19    20    1
     2    20     8    1
     3     8     9   ar
     4     9    10   ar
     5    10    11   ar
     6    11    12    1
     7    11    13   ar
     8    13    14   ar
     9    14    15    1
    10    14    16   ar
    11    16    17   ar
    12    17    18   ar
    13    18     7    1
    14     7     1    1
    15     1     2   ar
    16     2     3   ar
    17     3     4   ar
    18     4    21    1
    19    21    22    1
    20    22    23    1
    21    23    24    1
    22    24    25    1
    23    25    26    1
    24    26    27    1
    25    27    30    1
    26    30    31    1
    27    30    32    1
    28    27    28    1
    29    28    29    1
    30     4     5   ar
    31     5     6   ar
    32    18     8   ar
    33     6     1   ar
    34    17    10   ar
    35    29    24    1
@<TRIPOS>MOLECULE
*****
 32 35 0 0 0
SMALL
GASTEIGER

@<TRIPOS>ATOM
      1 C         138.8274  140.1564  164.7227 C.ar    1  UNL1       -0.0177
      2 C         138.3707  138.9827  165.5376 C.ar    1  UNL1       -0.0043
      3 C         138.5734  138.9773  167.0238 C.ar    1  UNL1       -0.0046
      4 C         139.2328  140.1454  167.6952 C.ar    1  UNL1       -0.0222
      5 C         139.6894  141.3191  166.8803 C.ar    1  UNL1       -0.0046
      6 C         139.4867  141.3245  165.3941 C.ar    1  UNL1       -0.0043
      7 C         138.6246  140.1619  163.2364 C.3     1  UNL1        0.0570
      8 C         139.1560  142.3784  161.8401 C.ar    1  UNL1        0.0782
      9 N         140.3118  142.8600  161.0141 N.ar    1  UNL1       -0.1687
     10 N         141.3670  141.7940  161.0272 N.ar    1  UNL1       -0.2168
     11 C         142.7214  141.7145  160.3874 C.ar    1  UNL1        0.0636
     12 C         143.2249  142.8550  159.5533 C.3     1  UNL1        0.0522
     13 C         143.5721  140.4945  160.5817 C.ar    1  UNL1        0.0296
     14 C         143.0685  139.3540  161.4158 C.ar    1  UNL1        0.0622
     15 C         143.9194  138.1340  161.6100 C.3     1  UNL1        0.0522
     16 N         141.7142  139.4335  162.0556 N.ar    1  UNL1       -0.2311
     17 C         140.8634  140.6535  161.8613 C.ar    1  UNL1        0.1604
     18 C         139.4970  141.0147  162.3637 C.ar    1  UNL1        0.0332
     19 C         137.7871  144.0650  163.2652 C.3     1  UNL1        0.0067
     20 C         137.8829  143.1287  162.0973 C.3     1  UNL1        0.0474
     21 C         139.4354  140.1399  169.1814 C.3     1  UNL1        0.0278
     22 C         140.8168  140.2738  169.7505 C.3     1  UNL1        0.0220
     23 C         141.9783  139.6208  169.0618 C.3     1  UNL1        0.0725
     24 N         142.5705  140.2466  167.8339 N.3     1  UNL1       -0.2703
     25 C         142.8573  141.7186  167.8062 C.3     1  UNL1        0.0897
     26 C         143.4495  142.3444  166.5784 C.3     1  UNL1        0.0896
     27 N         143.7549  141.4981  165.3781 N.3     1  UNL1       -0.2716
     28 C         143.4682  140.0260  165.4057 C.3     1  UNL1        0.0896
     29 C         142.8760  139.4003  166.6337 C.3     1  UNL1        0.0897
     30 C         144.3471  142.1239  164.1502 C.3     1  UNL1        0.0577
     31 C         143.6582  143.2826  163.4922 C.3     1  UNL1        0.0173
     32 C         145.6282  141.5910  163.5804 C.3     1  UNL1        0.0173
@<TRIPOS>BOND
     1    19    20    1
     2    20     8    1
     3     8     9   ar
     4     9    10   ar
     5    10    11   ar
     6    11    12    1
     7    11    13   ar
     8    13    14   ar
     9    14    15    1
    10    14    16   ar
    11    16    17   ar
    12    17    18   ar
    13    18     7    1
    14     7     1    1
    15     1     2   ar
    16     2     3   ar
    17     3     4   ar
    18     4    21    1
    19    21    22    1
    20    22    23    1
    21    23    24    1
    22    24    25    1
    23    25    26    1
    24    26    27    1
    25    27    30    1
    26    30    31    1
    27    30    32    1
    28    27    28    1
    29    28    29    1
    30     4     5   ar
    31     5     6   ar
    32    18     8   ar
    33     6     1   ar
    34    17    10   ar
    35    29    24    1
@<TRIPOS>MOLECULE
*****
 32 35 0 0 0
SMALL
GASTEIGER

@<TRIPOS>ATOM
      1 C         141.0055  138.6619  164.9804 C.ar    1  UNL1       -0.0177
      2 C         141.5823  138.1356  163.6997 C.ar    1  UNL1       -0.0043
      3 C         140.6848  137.8640  162.5288 C.ar    1  UNL1       -0.0046
      4 C         139.2107  138.1187  162.6387 C.ar    1  UNL1       -0.0222
      5 C         138.6340  138.6451  163.9195 C.ar    1  UNL1       -0.0046
      6 C         139.5314  138.9166  165.0903 C.ar    1  UNL1       -0.0043
      7 C         141.9029  138.9335  166.1514 C.3     1  UNL1        0.0570
      8 C         142.6720  141.4582  166.5753 C.ar    1  UNL1        0.0782
      9 N         142.2624  142.5469  167.5224 N.ar    1  UNL1       -0.1687
     10 N         141.1658  142.0133  168.3958 N.ar    1  UNL1       -0.2168
     11 C         140.3768  142.6357  169.5092 C.ar    1  UNL1        0.0636
     12 C         140.6449  144.0543  169.9166 C.3     1  UNL1        0.0522
     13 C         139.3196  141.8397  170.2154 C.ar    1  UNL1        0.0296
     14 C         139.0515  140.4212  169.8081 C.ar    1  UNL1        0.0622
     15 C         137.9943  139.6252  170.5143 C.3     1  UNL1        0.0522
     16 N         139.8405  139.7987  168.6946 N.ar    1  UNL1       -0.2311
     17 C         140.8976  140.5947  167.9884 C.ar    1  UNL1        0.1604
     18 C         141.8285  140.2517  166.8634 C.ar    1  UNL1        0.0332
     19 C         143.3569  141.6925  164.0802 C.3     1  UNL1        0.0067
     20 C         143.7379  141.5584  165.5247 C.3     1  UNL1        0.0474
     21 C         138.3134  137.8471  161.4678 C.3     1  UNL1        0.0278
     22 C         137.3731  138.9097  160.9810 C.3     1  UNL1        0.0220
     23 C         137.9139  140.2064  160.4559 C.3     1  UNL1        0.0725
     24 N         138.4496  141.2355  161.4068 N.3     1  UNL1       -0.2703
     25 C         139.8929  141.6386  161.3404 C.3     1  UNL1        0.0897
     26 C         140.4287  142.6677  162.2913 C.3     1  UNL1        0.0896
     27 N         139.5210  143.2936  163.3085 N.3     1  UNL1       -0.2716
     28 C         138.0778  142.8904  163.3748 C.3     1  UNL1        0.0896
     29 C         137.5421  141.8614  162.4239 C.3     1  UNL1        0.0897
     30 C         140.0568  144.3226  164.2594 C.3     1  UNL1        0.0577
     31 C         141.2964  145.0921  163.9113 C.3     1  UNL1        0.0173
     32 C         139.3528  144.5820  165.5582 C.3     1  UNL1        0.0173
@<TRIPOS>BOND
     1    19    20    1
     2    20     8    1
     3     8     9   ar
     4     9    10   ar
     5    10    11   ar
     6    11    12    1
     7    11    13   ar
     8    13    14   ar
     9    14    15    1
    10    14    16   ar
    11    16    17   ar
    12    17    18   ar
    13    18     7    1
    14     7     1    1
    15     1     2   ar
    16     2     3   ar
    17     3     4   ar
    18     4    21    1
    19    21    22    1
    20    22    23    1
    21    23    24    1
    22    24    25    1
    23    25    26    1
    24    26    27    1
    25    27    30    1
    26    30    31    1
    27    30    32    1
    28    27    28    1
    29    28    29    1
    30     4     5   ar
    31     5     6   ar
    32    18     8   ar
    33     6     1   ar
    34    17    10   ar
    35    29    24    1
@<TRIPOS>MOLECULE
*****
 32 35 0 0 0
SMALL
GASTEIGER

@<TRIPOS>ATOM
      1 C         142.3198  138.0636  162.8023 C.ar    1  UNL1       -0.0177
      2 C         140.9767  137.7236  162.2274 C.ar    1  UNL1       -0.0043
      3 C         139.7708  137.6732  163.1180 C.ar    1  UNL1       -0.0046
      4 C         139.9079  137.9627  164.5834 C.ar    1  UNL1       -0.0222
      5 C         141.2510  138.3027  165.1583 C.ar    1  UNL1       -0.0046
      6 C         142.4569  138.3532  164.2677 C.ar    1  UNL1       -0.0043
      7 C         143.5259  138.1141  161.9117 C.3     1  UNL1        0.0570
      8 C         143.8764  140.5462  160.8596 C.ar    1  UNL1        0.0782
      9 N         143.8140  141.1223  159.4760 N.ar    1  UNL1       -0.1687
     10 N         143.4709  140.0127  158.5268 N.ar    1  UNL1       -0.2168
     11 C         143.2754  139.9884  157.0398 C.ar    1  UNL1        0.0636
     12 C         143.4251  141.2503  156.2429 C.3     1  UNL1        0.0522
     13 C         142.9302  138.7021  156.3497 C.ar    1  UNL1        0.0296
     14 C         142.7805  137.4401  157.1466 C.ar    1  UNL1        0.0622
     15 C         142.4354  136.1538  156.4565 C.3     1  UNL1        0.0522
     16 N         142.9760  137.4645  158.6336 N.ar    1  UNL1       -0.2311
     17 C         143.3212  138.7508  159.3237 C.ar    1  UNL1        0.1604
     18 C         143.5718  139.0805  160.7654 C.ar    1  UNL1        0.0332
     19 C         145.1631  140.7403  163.1082 C.3     1  UNL1        0.0067
     20 C         144.1885  141.3029  162.1165 C.3     1  UNL1        0.0474
     21 C         138.7019  137.9122  165.4739 C.3     1  UNL1        0.0278
     22 C         138.1798  139.1706  166.1016 C.3     1  UNL1        0.0220
     23 C         138.1300  140.4410  165.3056 C.3     1  UNL1        0.0725
     24 N         139.3690  141.2696  165.1374 N.3     1  UNL1       -0.2703
     25 C         140.1565  141.6942  166.3413 C.3     1  UNL1        0.0897
     26 C         141.3955  142.5228  166.1731 C.3     1  UNL1        0.0896
     27 N         141.8470  142.9267  164.8008 N.3     1  UNL1       -0.2716
     28 C         141.0595  142.5021  163.5968 C.3     1  UNL1        0.0896
     29 C         139.8205  141.6735  163.7652 C.3     1  UNL1        0.0897
     30 C         143.0861  143.7553  164.6325 C.3     1  UNL1        0.0577
     31 C         143.1070  144.8804  163.6407 C.3     1  UNL1        0.0173
     32 C         144.3041  143.4587  165.4561 C.3     1  UNL1        0.0173
@<TRIPOS>BOND
     1    19    20    1
     2    20     8    1
     3     8     9   ar
     4     9    10   ar
     5    10    11   ar
     6    11    12    1
     7    11    13   ar
     8    13    14   ar
     9    14    15    1
    10    14    16   ar
    11    16    17   ar
    12    17    18   ar
    13    18     7    1
    14     7     1    1
    15     1     2   ar
    16     2     3   ar
    17     3     4   ar
    18     4    21    1
    19    21    22    1
    20    22    23    1
    21    23    24    1
    22    24    25    1
    23    25    26    1
    24    26    27    1
    25    27    30    1
    26    30    31    1
    27    30    32    1
    28    27    28    1
    29    28    29    1
    30     4     5   ar
    31     5     6   ar
    32    18     8   ar
    33     6     1   ar
    34    17    10   ar
    35    29    24    1
