@<TRIPOS>MOLECULE
*****
 20 22 0 0 0
SMALL
GASTEIGER

@<TRIPOS>ATOM
      1 N         140.7277  138.5064  161.9324 N.3     1  UNL1       -0.2711
      2 C         141.5281  139.2795  162.9382 C.3     1  UNL1        0.0939
      3 C         140.9991  139.4739  164.3283 C.3     1  UNL1        0.1123
      4 N         139.6697  138.8951  164.7126 N.am    1  UNL1       -0.2612
      5 C         139.1407  139.0895  166.1027 C.2     1  UNL1        0.3077
      6 O         137.8113  138.5108  166.4870 O.2     1  UNL1       -0.2523
      7 N         139.9411  139.8626  167.1085 N.am    1  UNL1       -0.2558
      8 C         139.5436  140.1375  168.5285 C.3     1  UNL1        0.1217
      9 C         140.6364  140.9414  169.1685 C.ar    1  UNL1       -0.0046
     10 C         140.7931  141.5000  170.5517 C.ar    1  UNL1       -0.0029
     11 C         142.0227  142.2804  170.9105 C.ar    1  UNL1       -0.0003
     12 C         143.0957  142.5023  169.8861 C.ar    1  UNL1       -0.0003
     13 C         142.9390  141.9438  168.5028 C.ar    1  UNL1       -0.0029
     14 C         141.7093  141.1633  168.1440 C.ar    1  UNL1       -0.0046
     15 C         141.2796  140.4966  166.8709 C.3     1  UNL1        0.1217
     16 C         138.8692  138.1220  163.7068 C.3     1  UNL1        0.1123
     17 C         139.3983  137.9277  162.3167 C.3     1  UNL1        0.0939
     18 C         140.3884  138.6222  159.3592 C.3     1  UNL1        0.0173
     19 C         141.2567  138.3120  160.5423 C.3     1  UNL1        0.0577
     20 C         142.6541  137.8075  160.3353 C.3     1  UNL1        0.0173
@<TRIPOS>BOND
     1    18    19    1
     2    19    20    1
     3    19     1    1
     4     1     2    1
     5     2     3    1
     6     3     4    1
     7     4     5   am
     8     5     6    2
     9     5     7   am
    10     7     8    1
    11     8     9    1
    12     9    10   ar
    13    10    11   ar
    14    11    12   ar
    15    12    13   ar
    16    13    14   ar
    17    14    15    1
    18     4    16    1
    19    16    17    1
    20    17     1    1
    21    15     7    1
    22    14     9   ar
@<TRIPOS>MOLECULE
*****
 20 22 0 0 0
SMALL
GASTEIGER

@<TRIPOS>ATOM
      1 N         139.7624  144.0556  162.1829 N.3     1  UNL1       -0.2711
      2 C         140.3547  144.1970  163.5537 C.3     1  UNL1        0.0939
      3 C         140.1113  143.1389  164.5887 C.3     1  UNL1        0.1123
      4 N         139.2755  141.9394  164.2528 N.am    1  UNL1       -0.2612
      5 C         139.0321  140.8813  165.2878 C.2     1  UNL1        0.3077
      6 O         138.1964  139.6819  164.9519 O.2     1  UNL1       -0.2523
      7 N         139.6244  141.0227  166.6586 N.am    1  UNL1       -0.2558
      8 C         139.4685  140.0513  167.7910 C.3     1  UNL1        0.1217
      9 C         140.2243  140.5886  168.9700 C.ar    1  UNL1       -0.0046
     10 C         140.4257  140.0593  170.3590 C.ar    1  UNL1       -0.0029
     11 C         141.2502  140.8334  171.3443 C.ar    1  UNL1       -0.0003
     12 C         141.8732  142.1369  170.9407 C.ar    1  UNL1       -0.0003
     13 C         141.6718  142.6661  169.5517 C.ar    1  UNL1       -0.0029
     14 C         140.8474  141.8920  168.5664 C.ar    1  UNL1       -0.0046
     15 C         140.4766  142.1603  167.1379 C.3     1  UNL1        0.1217
     16 C         138.6833  141.7980  162.8820 C.3     1  UNL1        0.1123
     17 C         138.9267  142.8562  161.8470 C.3     1  UNL1        0.0939
     18 C         139.6045  146.5336  161.4181 C.3     1  UNL1        0.0173
     19 C         140.0059  145.1138  161.1479 C.3     1  UNL1        0.0577
     20 C         140.6507  144.7520  159.8428 C.3     1  UNL1        0.0173
@<TRIPOS>BOND
     1    18    19    1
     2    19    20    1
     3    19     1    1
     4     1     2    1
     5     2     3    1
     6     3     4    1
     7     4     5   am
     8     5     6    2
     9     5     7   am
    10     7     8    1
    11     8     9    1
    12     9    10   ar
    13    10    11   ar
    14    11    12   ar
    15    12    13   ar
    16    13    14   ar
    17    14    15    1
    18     4    16    1
    19    16    17    1
    20    17     1    1
    21    15     7    1
    22    14     9   ar
@<TRIPOS>MOLECULE
*****
 20 22 0 0 0
SMALL
GASTEIGER

@<TRIPOS>ATOM
      1 N         140.6457  142.0721  168.6849 N.3     1  UNL1       -0.2711
      2 C         140.9312  142.1821  167.2164 C.3     1  UNL1        0.0939
      3 C         140.3695  141.1675  166.2652 C.3     1  UNL1        0.1123
      4 N         139.5223  140.0428  166.7823 N.am    1  UNL1       -0.2612
      5 C         138.9606  139.0281  165.8311 C.2     1  UNL1        0.3077
      6 O         138.1135  137.9035  166.3483 O.2     1  UNL1       -0.2523
      7 N         139.2461  139.1381  164.3626 N.am    1  UNL1       -0.2558
      8 C         138.7558  138.2036  163.2967 C.3     1  UNL1        0.1217
      9 C         139.2786  138.6898  161.9775 C.ar    1  UNL1       -0.0046
     10 C         139.1191  138.1675  160.5805 C.ar    1  UNL1       -0.0029
     11 C         139.7730  138.8804  159.4341 C.ar    1  UNL1       -0.0003
     12 C         140.5864  140.1155  159.6847 C.ar    1  UNL1       -0.0003
     13 C         140.7459  140.6378  161.0817 C.ar    1  UNL1       -0.0029
     14 C         140.0920  139.9250  162.2281 C.ar    1  UNL1       -0.0046
     15 C         140.0719  140.2020  163.7022 C.3     1  UNL1        0.1217
     16 C         139.2369  139.9328  168.2508 C.3     1  UNL1        0.1123
     17 C         139.7986  140.9475  169.2021 C.3     1  UNL1        0.0939
     18 C         140.3718  144.2564  170.0648 C.3     1  UNL1        0.0173
     19 C         141.2075  143.0868  169.6362 C.3     1  UNL1        0.0577
     20 C         142.6049  142.9319  170.1589 C.3     1  UNL1        0.0173
@<TRIPOS>BOND
     1    18    19    1
     2    19    20    1
     3    19     1    1
     4     1     2    1
     5     2     3    1
     6     3     4    1
     7     4     5   am
     8     5     6    2
     9     5     7   am
    10     7     8    1
    11     8     9    1
    12     9    10   ar
    13    10    11   ar
    14    11    12   ar
    15    12    13   ar
    16    13    14   ar
    17    14    15    1
    18     4    16    1
    19    16    17    1
    20    17     1    1
    21    15     7    1
    22    14     9   ar
@<TRIPOS>MOLECULE
*****
 20 22 0 0 0
SMALL
GASTEIGER

@<TRIPOS>ATOM
      1 N         140.5689  142.1669  168.3494 N.3     1  UNL1       -0.2711
      2 C         140.4638  142.6678  166.9394 C.3     1  UNL1        0.0939
      3 C         139.8764  141.7907  165.8738 C.3     1  UNL1        0.1123
      4 N         139.3940  140.4127  166.2181 N.am    1  UNL1       -0.2612
      5 C         138.8066  139.5356  165.1524 C.2     1  UNL1        0.3077
      6 O         138.3243  138.1577  165.4968 O.2     1  UNL1       -0.2523
      7 N         138.7014  140.0365  163.7425 N.am    1  UNL1       -0.2558
      8 C         138.1400  139.2776  162.5768 C.3     1  UNL1        0.1217
      9 C         138.2308  140.1563  161.3644 C.ar    1  UNL1       -0.0046
     10 C         137.8310  139.9391  159.9352 C.ar    1  UNL1       -0.0029
     11 C         138.0487  141.0238  158.9223 C.ar    1  UNL1       -0.0003
     12 C         138.6664  142.3258  159.3388 C.ar    1  UNL1       -0.0003
     13 C         139.0662  142.5430  160.7681 C.ar    1  UNL1       -0.0029
     14 C         138.8485  141.4583  161.7809 C.ar    1  UNL1       -0.0046
     15 C         139.1393  141.3842  163.2506 C.3     1  UNL1        0.1217
     16 C         139.4991  139.9118  167.6281 C.3     1  UNL1        0.1123
     17 C         140.0866  140.7890  168.6937 C.3     1  UNL1        0.0939
     18 C         140.3441  144.1621  169.9983 C.3     1  UNL1        0.0173
     19 C         141.1564  143.0441  169.4151 C.3     1  UNL1        0.0577
     20 C         142.5562  142.8031  169.8974 C.3     1  UNL1        0.0173
@<TRIPOS>BOND
     1    18    19    1
     2    19    20    1
     3    19     1    1
     4     1     2    1
     5     2     3    1
     6     3     4    1
     7     4     5   am
     8     5     6    2
     9     5     7   am
    10     7     8    1
    11     8     9    1
    12     9    10   ar
    13    10    11   ar
    14    11    12   ar
    15    12    13   ar
    16    13    14   ar
    17    14    15    1
    18     4    16    1
    19    16    17    1
    20    17     1    1
    21    15     7    1
    22    14     9   ar
@<TRIPOS>MOLECULE
*****
 20 22 0 0 0
SMALL
GASTEIGER

@<TRIPOS>ATOM
      1 N         140.9821  144.8016  160.2020 N.3     1  UNL1       -0.2711
      2 C         141.6058  143.6654  160.9570 C.3     1  UNL1        0.0939
      3 C         141.2768  143.4572  162.4055 C.3     1  UNL1        0.1123
      4 N         140.3239  144.3852  163.0991 N.am    1  UNL1       -0.2612
      5 C         139.9948  144.1769  164.5477 C.2     1  UNL1        0.3077
      6 O         139.0419  145.1048  165.2412 O.2     1  UNL1       -0.2523
      7 N         140.6185  143.0408  165.3027 N.am    1  UNL1       -0.2558
      8 C         140.3864  142.7091  166.7470 C.3     1  UNL1        0.1217
      9 C         141.2084  141.5001  167.0829 C.ar    1  UNL1       -0.0046
     10 C         141.3785  140.7240  168.3552 C.ar    1  UNL1       -0.0029
     11 C         142.2887  139.5323  168.3907 C.ar    1  UNL1       -0.0003
     12 C         143.0289  139.1168  167.1539 C.ar    1  UNL1       -0.0003
     13 C         142.8588  139.8929  165.8817 C.ar    1  UNL1       -0.0029
     14 C         141.9485  141.0846  165.8462 C.ar    1  UNL1       -0.0046
     15 C         141.5840  142.0368  164.7460 C.3     1  UNL1        0.1217
     16 C         139.7001  145.5213  162.3441 C.3     1  UNL1        0.1123
     17 C         140.0292  145.7295  160.8955 C.3     1  UNL1        0.0939
     18 C         140.4442  145.8939  157.9068 C.3     1  UNL1        0.0173
     19 C         141.3112  145.0098  158.7534 C.3     1  UNL1        0.0577
     20 C         142.5074  144.3339  158.1514 C.3     1  UNL1        0.0173
@<TRIPOS>BOND
     1    18    19    1
     2    19    20    1
     3    19     1    1
     4     1     2    1
     5     2     3    1
     6     3     4    1
     7     4     5   am
     8     5     6    2
     9     5     7   am
    10     7     8    1
    11     8     9    1
    12     9    10   ar
    13    10    11   ar
    14    11    12   ar
    15    12    13   ar
    16    13    14   ar
    17    14    15    1
    18     4    16    1
    19    16    17    1
    20    17     1    1
    21    15     7    1
    22    14     9   ar
@<TRIPOS>MOLECULE
*****
 20 22 0 0 0
SMALL
GASTEIGER

@<TRIPOS>ATOM
      1 N         140.4698  144.7598  159.1012 N.3     1  UNL1       -0.2711
      2 C         140.3038  143.3339  159.5363 C.3     1  UNL1        0.0939
      3 C         139.9214  143.0217  160.9527 C.3     1  UNL1        0.1123
      4 N         139.7048  144.1354  161.9341 N.am    1  UNL1       -0.2612
      5 C         139.3224  143.8231  163.3504 C.2     1  UNL1        0.3077
      6 O         139.1059  144.9368  164.3317 O.2     1  UNL1       -0.2523
      7 N         139.1564  142.3973  163.7856 N.am    1  UNL1       -0.2558
      8 C         138.7791  141.9335  165.1613 C.3     1  UNL1        0.1217
      9 C         138.7281  140.4344  165.1474 C.ar    1  UNL1       -0.0046
     10 C         138.4115  139.4310  166.2164 C.ar    1  UNL1       -0.0029
     11 C         138.4406  137.9648  165.9010 C.ar    1  UNL1       -0.0003
     12 C         138.7865  137.5021  164.5167 C.ar    1  UNL1       -0.0003
     13 C         139.1031  138.5055  163.4478 C.ar    1  UNL1       -0.0029
     14 C         139.0739  139.9717  163.7631 C.ar    1  UNL1       -0.0046
     15 C         139.3386  141.1848  162.9215 C.3     1  UNL1        0.1217
     16 C         139.8708  145.5612  161.4989 C.3     1  UNL1        0.1123
     17 C         140.2533  145.8734  160.0824 C.3     1  UNL1        0.0939
     18 C         140.0042  144.5746  156.5519 C.3     1  UNL1        0.0173
     19 C         140.8523  145.0720  157.6847 C.3     1  UNL1        0.0577
     20 C         142.0828  145.8815  157.4012 C.3     1  UNL1        0.0173
@<TRIPOS>BOND
     1    18    19    1
     2    19    20    1
     3    19     1    1
     4     1     2    1
     5     2     3    1
     6     3     4    1
     7     4     5   am
     8     5     6    2
     9     5     7   am
    10     7     8    1
    11     8     9    1
    12     9    10   ar
    13    10    11   ar
    14    11    12   ar
    15    12    13   ar
    16    13    14   ar
    17    14    15    1
    18     4    16    1
    19    16    17    1
    20    17     1    1
    21    15     7    1
    22    14     9   ar
@<TRIPOS>MOLECULE
*****
 20 22 0 0 0
SMALL
GASTEIGER

@<TRIPOS>ATOM
      1 N         141.7349  138.7000  160.8673 N.3     1  UNL1       -0.2711
      2 C         140.8325  138.9773  162.0330 C.3     1  UNL1        0.0939
      3 C         141.4046  139.0847  163.4154 C.3     1  UNL1        0.1123
      4 N         142.8791  138.9149  163.6322 N.am    1  UNL1       -0.2612
      5 C         143.4512  139.0223  165.0146 C.2     1  UNL1        0.3077
      6 O         144.9257  138.8525  165.2314 O.2     1  UNL1       -0.2523
      7 N         142.5488  139.2997  166.1803 N.am    1  UNL1       -0.2558
      8 C         142.9743  139.4335  167.6124 C.3     1  UNL1        0.1217
      9 C         141.7509  139.7084  168.4358 C.ar    1  UNL1       -0.0046
     10 C         141.5602  139.9306  169.9069 C.ar    1  UNL1       -0.0029
     11 C         140.1880  140.1888  170.4547 C.ar    1  UNL1       -0.0003
     12 C         139.0064  140.2248  169.5314 C.ar    1  UNL1       -0.0003
     13 C         139.1970  140.0026  168.0603 C.ar    1  UNL1       -0.0029
     14 C         140.5693  139.7445  167.5124 C.ar    1  UNL1       -0.0046
     15 C         141.0624  139.4918  166.1185 C.3     1  UNL1        0.1217
     16 C         143.7815  138.6376  162.4666 C.3     1  UNL1        0.1123
     17 C         143.2094  138.5301  161.0841 C.3     1  UNL1        0.0939
     18 C         142.0666  138.3267  158.3177 C.3     1  UNL1        0.0173
     19 C         141.1628  138.5925  159.4848 C.3     1  UNL1        0.0577
     20 C         139.6867  138.7508  159.2696 C.3     1  UNL1        0.0173
@<TRIPOS>BOND
     1    18    19    1
     2    19    20    1
     3    19     1    1
     4     1     2    1
     5     2     3    1
     6     3     4    1
     7     4     5   am
     8     5     6    2
     9     5     7   am
    10     7     8    1
    11     8     9    1
    12     9    10   ar
    13    10    11   ar
    14    11    12   ar
    15    12    13   ar
    16    13    14   ar
    17    14    15    1
    18     4    16    1
    19    16    17    1
    20    17     1    1
    21    15     7    1
    22    14     9   ar
@<TRIPOS>MOLECULE
*****
 20 22 0 0 0
SMALL
GASTEIGER

@<TRIPOS>ATOM
      1 N         139.7022  143.6901  159.2482 N.3     1  UNL1       -0.2711
      2 C         139.2396  142.6545  160.2298 C.3     1  UNL1        0.0939
      3 C         139.6390  142.7568  161.6720 C.3     1  UNL1        0.1123
      4 N         140.5012  143.8946  162.1326 N.am    1  UNL1       -0.2612
      5 C         140.9006  143.9968  163.5748 C.2     1  UNL1        0.3077
      6 O         141.7627  145.1346  164.0354 O.2     1  UNL1       -0.2523
      7 N         140.4380  142.9613  164.5564 N.am    1  UNL1       -0.2558
      8 C         140.7553  142.9318  166.0222 C.3     1  UNL1        0.1217
      9 C         140.0902  141.7256  166.6163 C.ar    1  UNL1       -0.0046
     10 C         140.0538  141.1868  168.0156 C.ar    1  UNL1       -0.0029
     11 C         139.2889  139.9320  168.3164 C.ar    1  UNL1       -0.0003
     12 C         138.5606  139.2161  167.2178 C.ar    1  UNL1       -0.0003
     13 C         138.5970  139.7549  165.8184 C.ar    1  UNL1       -0.0029
     14 C         139.3619  141.0097  165.5177 C.ar    1  UNL1       -0.0046
     15 C         139.5768  141.7733  164.2446 C.3     1  UNL1        0.1217
     16 C         140.9638  144.9302  161.1510 C.3     1  UNL1        0.1123
     17 C         140.5643  144.8279  159.7087 C.3     1  UNL1        0.0939
     18 C         139.7952  144.6029  156.8175 C.3     1  UNL1        0.0173
     19 C         139.3027  143.5879  157.8059 C.3     1  UNL1        0.0577
     20 C         138.4108  142.4705  157.3522 C.3     1  UNL1        0.0173
@<TRIPOS>BOND
     1    18    19    1
     2    19    20    1
     3    19     1    1
     4     1     2    1
     5     2     3    1
     6     3     4    1
     7     4     5   am
     8     5     6    2
     9     5     7   am
    10     7     8    1
    11     8     9    1
    12     9    10   ar
    13    10    11   ar
    14    11    12   ar
    15    12    13   ar
    16    13    14   ar
    17    14    15    1
    18     4    16    1
    19    16    17    1
    20    17     1    1
    21    15     7    1
    22    14     9   ar
@<TRIPOS>MOLECULE
*****
 20 22 0 0 0
SMALL
GASTEIGER

@<TRIPOS>ATOM
      1 N         138.4615  138.5503  155.3644 N.3     1  UNL1       -0.2711
      2 C         138.8680  137.1912  154.8769 C.3     1  UNL1        0.0939
      3 C         140.1078  136.5411  155.4155 C.3     1  UNL1        0.1123
      4 N         140.9412  137.2500  156.4416 N.am    1  UNL1       -0.2612
      5 C         142.1810  136.5999  156.9802 C.2     1  UNL1        0.3077
      6 O         143.0143  137.3088  158.0063 O.2     1  UNL1       -0.2523
      7 N         142.5875  135.2408  156.4927 N.am    1  UNL1       -0.2558
      8 C         143.7948  134.4694  156.9370 C.3     1  UNL1        0.1217
      9 C         143.8115  133.1663  156.1942 C.ar    1  UNL1       -0.0046
     10 C         144.7620  132.0063  156.2237 C.ar    1  UNL1       -0.0029
     11 C         144.5155  130.8124  155.3498 C.ar    1  UNL1       -0.0003
     12 C         143.3185  130.7784  154.4464 C.ar    1  UNL1       -0.0003
     13 C         142.3681  131.9384  154.4169 C.ar    1  UNL1       -0.0029
     14 C         142.6145  133.1324  155.2908 C.ar    1  UNL1       -0.0046
     15 C         141.8581  134.4144  155.4753 C.3     1  UNL1        0.1217
     16 C         140.5347  138.6091  156.9292 C.3     1  UNL1        0.1123
     17 C         139.2948  139.2592  156.3905 C.3     1  UNL1        0.0939
     18 C         136.8258  140.5678  155.2987 C.3     1  UNL1        0.0173
     19 C         137.2216  139.2005  154.8258 C.3     1  UNL1        0.0577
     20 C         136.3776  138.4832  153.8142 C.3     1  UNL1        0.0173
@<TRIPOS>BOND
     1    18    19    1
     2    19    20    1
     3    19     1    1
     4     1     2    1
     5     2     3    1
     6     3     4    1
     7     4     5   am
     8     5     6    2
     9     5     7   am
    10     7     8    1
    11     8     9    1
    12     9    10   ar
    13    10    11   ar
    14    11    12   ar
    15    12    13   ar
    16    13    14   ar
    17    14    15    1
    18     4    16    1
    19    16    17    1
    20    17     1    1
    21    15     7    1
    22    14     9   ar
