@<TRIPOS>MOLECULE
*****
 42 47 0 0 0
SMALL
GASTEIGER

@<TRIPOS>ATOM
      1 C         138.7741  138.8622  165.8330 C.ar    1  UNL1        0.1658
      2 C         137.8004  138.6245  166.9489 C.ar    1  UNL1        0.1363
      3 N         138.1003  139.1347  168.3272 N.ar    1  UNL1       -0.2392
      4 C         139.3737  139.8826  168.5896 C.ar    1  UNL1        0.0975
      5 C         139.6735  140.3929  169.9679 C.ar    1  UNL1        0.0255
      6 C         140.9470  141.1408  170.2303 C.ar    1  UNL1        0.0623
      7 C         141.9207  141.3786  169.1142 C.ar    1  UNL1        0.2611
      8 O         143.1942  142.1265  169.3765 O.2     1  UNL1       -0.2670
      9 N         141.6209  140.8683  167.7359 N.ar    1  UNL1       -0.2926
     10 C         140.3474  140.1204  167.4736 C.ar    1  UNL1        0.0832
     11 C         140.0475  139.6102  166.0953 C.ar    1  UNL1        0.0579
     12 O         138.4743  138.3520  164.4546 O.3     1  UNL1       -0.4519
     13 C         138.4777  141.1834  160.9571 C.ar    1  UNL1        0.1219
     14 C         137.7259  141.5356  162.2063 C.ar    1  UNL1        0.0230
     15 C         137.7247  140.5917  163.3722 C.ar    1  UNL1        0.0389
     16 C         138.4754  139.2958  163.2888 C.ar    1  UNL1        0.1455
     17 C         139.2273  138.9437  162.0394 C.ar    1  UNL1        0.0389
     18 C         139.2284  139.8875  160.8736 C.ar    1  UNL1        0.0230
     19 N         138.4800  143.0711  158.6254 N.3     1  UNL1       -0.2035
     20 S         138.4789  142.1273  159.7913 S.O2    1  UNL1        0.0572
     21 O         138.0997  143.2554  160.7042 O.2     1  UNL1       -0.1532
     22 O         138.8581  140.9991  158.8783 O.2     1  UNL1       -0.1532
     23 H         138.2372  144.0083  158.9464 H       1  UNL1        0.1442
     24 H         137.7961  142.7601  157.9355 H       1  UNL1        0.1442
     25 C         142.5945  141.1061  166.6199 C.3     1  UNL1        0.1264
     26 C         142.9379  142.5075  166.2100 C.3     1  UNL1        0.0970
     27 N         142.6580  142.9694  164.8105 N.3     1  UNL1       -0.2710
     28 C         143.7514  143.5911  163.9932 C.3     1  UNL1        0.0728
     29 C         143.4716  144.0530  162.5938 C.3     1  UNL1        0.0298
     30 C         142.0984  143.8933  162.0117 C.3     1  UNL1        0.1147
     31 C         141.0050  143.2716  162.8290 C.3     1  UNL1        0.0298
     32 C         141.2848  142.8097  164.2285 C.3     1  UNL1        0.0728
     33 C         141.8186  144.3552  160.6123 C.2     1  UNL1        0.3507
     34 N         140.7051  145.2677  160.1911 N.2     1  UNL1       -0.0350
     35 C         140.8015  145.4622  158.7069 C.2     1  UNL1        0.2326
     36 C         139.9727  146.2584  157.7430 C.2     1  UNL1        0.0612
     37 C         140.3169  146.2622  156.2830 C.2     1  UNL1        0.0577
     38 CL        139.4881  147.0584  155.3191 Cl      1  UNL1       -0.0824
     39 C         141.4899  145.4699  155.7869 C.2     1  UNL1       -0.0058
     40 C         142.3188  144.6736  156.7508 C.3     1  UNL1        0.1046
     41 C         141.9746  144.6698  158.2108 C.2     1  UNL1        0.2175
     42 N         142.6031  143.9856  159.3884 N.2     1  UNL1       -0.0389
@<TRIPOS>BOND
     1    19    20    1
     2    20    21    2
     3    20    22    2
     4    20    13    1
     5    13    14   ar
     6    14    15   ar
     7    15    16   ar
     8    16    12    1
     9    12     1    1
    10     1     2   ar
    11     2     3   ar
    12     3     4   ar
    13     4     5   ar
    14     5     6   ar
    15     6     7   ar
    16     7     8    2
    17     7     9   ar
    18     9    25    1
    19    25    26    1
    20    26    27    1
    21    27    28    1
    22    28    29    1
    23    29    30    1
    24    30    33    1
    25    33    34    2
    26    34    35    1
    27    35    36    2
    28    36    37    1
    29    37    38    1
    30    37    39    2
    31    39    40    1
    32    40    41    1
    33    41    42    2
    34    30    31    1
    35    31    32    1
    36     9    10   ar
    37    10    11   ar
    38    16    17   ar
    39    17    18   ar
    40    18    13   ar
    41    11     1   ar
    42    10     4   ar
    43    32    27    1
    44    42    33    1
    45    41    35    1
    46    19    23    1
    47    19    24    1
@<TRIPOS>MOLECULE
*****
 42 47 0 0 0
SMALL
GASTEIGER

@<TRIPOS>ATOM
      1 C         138.8247  141.0785  159.9231 C.ar    1  UNL1        0.1658
      2 C         138.8933  142.5260  159.5356 C.ar    1  UNL1        0.1363
      3 N         140.0019  143.0137  158.6507 N.ar    1  UNL1       -0.2392
      4 C         141.0418  142.0539  158.1533 C.ar    1  UNL1        0.0975
      5 C         142.1505  142.5417  157.2683 C.ar    1  UNL1        0.0255
      6 C         143.1904  141.5820  156.7709 C.ar    1  UNL1        0.0623
      7 C         143.1217  140.1345  157.1584 C.ar    1  UNL1        0.2611
      8 O         144.1617  139.1747  156.6610 O.2     1  UNL1       -0.2670
      9 N         142.0132  139.6468  158.0433 N.ar    1  UNL1       -0.2926
     10 C         140.9732  140.6065  158.5408 C.ar    1  UNL1        0.0832
     11 C         139.8646  140.1188  159.4257 C.ar    1  UNL1        0.0579
     12 O         137.7160  140.5908  160.8081 O.3     1  UNL1       -0.4519
     13 C         138.4696  139.9131  165.1925 C.ar    1  UNL1        0.1219
     14 C         138.1635  141.2924  164.6885 C.ar    1  UNL1        0.0230
     15 C         137.9123  141.5183  163.2270 C.ar    1  UNL1        0.0389
     16 C         137.9672  140.3649  162.2695 C.ar    1  UNL1        0.1455
     17 C         138.2733  138.9856  162.7735 C.ar    1  UNL1        0.0389
     18 C         138.5245  138.7598  164.2350 C.ar    1  UNL1        0.0230
     19 N         138.9719  139.4614  168.1154 N.3     1  UNL1       -0.2035
     20 S         138.7208  139.6873  166.6539 S.O2    1  UNL1        0.0572
     21 O         139.5125  140.9598  166.7145 O.2     1  UNL1       -0.1532
     22 O         137.9290  138.4147  166.5933 O.2     1  UNL1       -0.1532
     23 H         139.5365  140.2260  168.4855 H       1  UNL1        0.1442
     24 H         139.4685  138.5796  168.2427 H       1  UNL1        0.1442
     25 C         141.9445  138.1994  158.4308 C.3     1  UNL1        0.1264
     26 C         142.9121  137.6448  159.4339 C.3     1  UNL1        0.0970
     27 N         142.8923  138.1416  160.8492 N.3     1  UNL1       -0.2710
     28 C         143.9900  139.0351  161.3458 C.3     1  UNL1        0.0728
     29 C         143.9703  139.5319  162.7609 C.3     1  UNL1        0.0298
     30 C         142.8529  139.1351  163.6796 C.3     1  UNL1        0.1147
     31 C         141.7552  138.2415  163.1831 C.3     1  UNL1        0.0298
     32 C         141.7749  137.7448  161.7678 C.3     1  UNL1        0.0728
     33 C         142.8331  139.6319  165.0948 C.2     1  UNL1        0.3507
     34 N         142.9864  141.0590  165.5305 N.2     1  UNL1       -0.0350
     35 C         142.9047  141.0980  167.0278 C.2     1  UNL1        0.2326
     36 C         142.9895  142.2297  168.0085 C.2     1  UNL1        0.0612
     37 C         142.8705  141.9583  169.4790 C.2     1  UNL1        0.0577
     38 CL        142.9553  143.0901  170.4597 Cl      1  UNL1       -0.0824
     39 C         142.6667  140.5553  169.9687 C.2     1  UNL1       -0.0058
     40 C         142.5819  139.4235  168.9879 C.3     1  UNL1        0.1046
     41 C         142.7009  139.6948  167.5174 C.2     1  UNL1        0.2175
     42 N         142.6567  138.7888  166.3228 N.2     1  UNL1       -0.0389
@<TRIPOS>BOND
     1    19    20    1
     2    20    21    2
     3    20    22    2
     4    20    13    1
     5    13    14   ar
     6    14    15   ar
     7    15    16   ar
     8    16    12    1
     9    12     1    1
    10     1     2   ar
    11     2     3   ar
    12     3     4   ar
    13     4     5   ar
    14     5     6   ar
    15     6     7   ar
    16     7     8    2
    17     7     9   ar
    18     9    25    1
    19    25    26    1
    20    26    27    1
    21    27    28    1
    22    28    29    1
    23    29    30    1
    24    30    33    1
    25    33    34    2
    26    34    35    1
    27    35    36    2
    28    36    37    1
    29    37    38    1
    30    37    39    2
    31    39    40    1
    32    40    41    1
    33    41    42    2
    34    30    31    1
    35    31    32    1
    36     9    10   ar
    37    10    11   ar
    38    16    17   ar
    39    17    18   ar
    40    18    13   ar
    41    11     1   ar
    42    10     4   ar
    43    32    27    1
    44    42    33    1
    45    41    35    1
    46    19    23    1
    47    19    24    1
@<TRIPOS>MOLECULE
*****
 42 47 0 0 0
SMALL
GASTEIGER

@<TRIPOS>ATOM
      1 C         139.1494  140.8292  159.0235 C.ar    1  UNL1        0.1658
      2 C         138.0522  140.6871  158.0107 C.ar    1  UNL1        0.1363
      3 N         138.1786  139.6825  156.9040 N.ar    1  UNL1       -0.2392
      4 C         139.4023  138.8201  156.8100 C.ar    1  UNL1        0.0975
      5 C         139.5287  137.8156  155.7032 C.ar    1  UNL1        0.0255
      6 C         140.7524  136.9531  155.6093 C.ar    1  UNL1        0.0623
      7 C         141.8497  137.0953  156.6222 C.ar    1  UNL1        0.2611
      8 O         143.0734  136.2329  156.5282 O.2     1  UNL1       -0.2670
      9 N         141.7232  138.0998  157.7289 N.ar    1  UNL1       -0.2926
     10 C         140.4995  138.9622  157.8228 C.ar    1  UNL1        0.0832
     11 C         140.3731  139.9667  158.9296 C.ar    1  UNL1        0.0579
     12 O         139.0230  141.8337  160.1303 O.3     1  UNL1       -0.4519
     13 C         138.9818  140.4653  164.4170 C.ar    1  UNL1        0.1219
     14 C         139.8436  141.6226  164.0074 C.ar    1  UNL1        0.0230
     15 C         139.8574  142.0788  162.5785 C.ar    1  UNL1        0.0389
     16 C         139.0093  141.3776  161.5592 C.ar    1  UNL1        0.1455
     17 C         138.1474  140.2202  161.9688 C.ar    1  UNL1        0.0389
     18 C         138.1336  139.7641  163.3977 C.ar    1  UNL1        0.0230
     19 N         138.9543  139.5531  167.2748 N.3     1  UNL1       -0.2035
     20 S         138.9680  140.0092  165.8459 S.O2    1  UNL1        0.0572
     21 O         138.3375  138.7144  165.4265 O.2     1  UNL1       -0.1532
     22 O         139.5986  141.3040  166.2652 O.2     1  UNL1       -0.1532
     23 H         138.5470  138.6196  167.3299 H       1  UNL1        0.1442
     24 H         138.3977  140.2004  167.8330 H       1  UNL1        0.1442
     25 C         142.8205  138.2419  158.7417 C.3     1  UNL1        0.1264
     26 C         142.8694  137.3253  159.9280 C.3     1  UNL1        0.0970
     27 N         142.8469  137.8933  161.3162 N.3     1  UNL1       -0.2710
     28 C         141.6392  137.7027  162.1851 C.3     1  UNL1        0.0728
     29 C         141.6166  138.2707  163.5731 C.3     1  UNL1        0.0298
     30 C         142.8019  139.0294  164.0924 C.3     1  UNL1        0.1147
     31 C         144.0097  139.2200  163.2236 C.3     1  UNL1        0.0298
     32 C         144.0322  138.6520  161.8354 C.3     1  UNL1        0.0728
     33 C         142.7793  139.5974  165.4805 C.2     1  UNL1        0.3507
     34 N         143.0033  141.0341  165.8490 N.2     1  UNL1       -0.0350
     35 C         142.8912  141.1531  167.3401 C.2     1  UNL1        0.2326
     36 C         143.0183  142.3265  168.2657 C.2     1  UNL1        0.0612
     37 C         142.8522  142.1368  169.7444 C.2     1  UNL1        0.0577
     38 CL        142.9792  143.3103  170.6700 Cl      1  UNL1       -0.0824
     39 C         142.5590  140.7737  170.2974 C.2     1  UNL1       -0.0058
     40 C         142.4319  139.6002  169.3717 C.3     1  UNL1        0.1046
     41 C         142.5980  139.7899  167.8931 C.2     1  UNL1        0.2175
     42 N         142.5289  138.8284  166.7438 N.2     1  UNL1       -0.0389
@<TRIPOS>BOND
     1    19    20    1
     2    20    21    2
     3    20    22    2
     4    20    13    1
     5    13    14   ar
     6    14    15   ar
     7    15    16   ar
     8    16    12    1
     9    12     1    1
    10     1     2   ar
    11     2     3   ar
    12     3     4   ar
    13     4     5   ar
    14     5     6   ar
    15     6     7   ar
    16     7     8    2
    17     7     9   ar
    18     9    25    1
    19    25    26    1
    20    26    27    1
    21    27    28    1
    22    28    29    1
    23    29    30    1
    24    30    33    1
    25    33    34    2
    26    34    35    1
    27    35    36    2
    28    36    37    1
    29    37    38    1
    30    37    39    2
    31    39    40    1
    32    40    41    1
    33    41    42    2
    34    30    31    1
    35    31    32    1
    36     9    10   ar
    37    10    11   ar
    38    16    17   ar
    39    17    18   ar
    40    18    13   ar
    41    11     1   ar
    42    10     4   ar
    43    32    27    1
    44    42    33    1
    45    41    35    1
    46    19    23    1
    47    19    24    1
@<TRIPOS>MOLECULE
*****
 42 47 0 0 0
SMALL
GASTEIGER

@<TRIPOS>ATOM
      1 C         139.1499  138.7192  165.5664 C.ar    1  UNL1        0.1658
      2 C         138.0594  138.5452  166.5815 C.ar    1  UNL1        0.1363
      3 N         138.1940  139.1653  167.9406 N.ar    1  UNL1       -0.2392
      4 C         139.4192  139.9595  168.2846 C.ar    1  UNL1        0.0975
      5 C         139.5538  140.5797  169.6438 C.ar    1  UNL1        0.0255
      6 C         140.7789  141.3739  169.9878 C.ar    1  UNL1        0.0623
      7 C         141.8694  141.5478  168.9726 C.ar    1  UNL1        0.2611
      8 O         143.0946  142.3420  169.3166 O.2     1  UNL1       -0.2670
      9 N         141.7348  140.9277  167.6135 N.ar    1  UNL1       -0.2926
     10 C         140.5097  140.1335  167.2695 C.ar    1  UNL1        0.0832
     11 C         140.3750  139.5133  165.9104 C.ar    1  UNL1        0.0579
     12 O         139.0153  138.0990  164.2072 O.3     1  UNL1       -0.4519
     13 C         142.0315  139.0304  161.0003 C.ar    1  UNL1        0.1219
     14 C         142.3352  137.9884  162.0356 C.ar    1  UNL1        0.0230
     15 C         141.3298  137.6779  163.1046 C.ar    1  UNL1        0.0389
     16 C         140.0207  138.4094  163.1382 C.ar    1  UNL1        0.1455
     17 C         139.7170  139.4515  162.1029 C.ar    1  UNL1        0.0389
     18 C         140.7224  139.7620  161.0339 C.ar    1  UNL1        0.0230
     19 N         144.0424  139.6514  158.8623 N.3     1  UNL1       -0.2035
     20 S         143.0369  139.3409  159.9313 S.O2    1  UNL1        0.0572
     21 O         142.1730  140.4668  159.4457 O.2     1  UNL1       -0.1532
     22 O         143.9009  138.2150  160.4169 O.2     1  UNL1       -0.1532
     23 H         143.7164  140.4436  158.3087 H       1  UNL1        0.1442
     24 H         144.1576  138.8382  158.2574 H       1  UNL1        0.1442
     25 C         142.8253  141.1017  166.5984 C.3     1  UNL1        0.1264
     26 C         143.2207  142.4776  166.1507 C.3     1  UNL1        0.0970
     27 N         142.9224  142.9254  164.7505 N.3     1  UNL1       -0.2710
     28 C         143.8881  143.8155  164.0260 C.3     1  UNL1        0.0728
     29 C         143.5899  144.2633  162.6258 C.3     1  UNL1        0.0298
     30 C         142.3258  143.8210  161.9501 C.3     1  UNL1        0.1147
     31 C         141.3600  142.9309  162.6747 C.3     1  UNL1        0.0298
     32 C         141.6583  142.4831  164.0749 C.3     1  UNL1        0.0728
     33 C         142.0275  144.2688  160.5500 C.2     1  UNL1        0.3507
     34 N         140.9236  145.1969  160.1374 N.2     1  UNL1       -0.0350
     35 C         140.9946  145.3688  158.6490 C.2     1  UNL1        0.2326
     36 C         140.1625  146.1675  157.6900 C.2     1  UNL1        0.0612
     37 C         140.4780  146.1444  156.2238 C.2     1  UNL1        0.0577
     38 CL        139.6459  146.9431  155.2648 Cl      1  UNL1       -0.0824
     39 C         141.6258  145.3226  155.7165 C.2     1  UNL1       -0.0058
     40 C         142.4580  144.5239  156.6754 C.3     1  UNL1        0.1046
     41 C         142.1424  144.5470  158.1417 C.2     1  UNL1        0.2175
     42 N         142.7807  143.8672  159.3166 N.2     1  UNL1       -0.0389
@<TRIPOS>BOND
     1    19    20    1
     2    20    21    2
     3    20    22    2
     4    20    13    1
     5    13    14   ar
     6    14    15   ar
     7    15    16   ar
     8    16    12    1
     9    12     1    1
    10     1     2   ar
    11     2     3   ar
    12     3     4   ar
    13     4     5   ar
    14     5     6   ar
    15     6     7   ar
    16     7     8    2
    17     7     9   ar
    18     9    25    1
    19    25    26    1
    20    26    27    1
    21    27    28    1
    22    28    29    1
    23    29    30    1
    24    30    33    1
    25    33    34    2
    26    34    35    1
    27    35    36    2
    28    36    37    1
    29    37    38    1
    30    37    39    2
    31    39    40    1
    32    40    41    1
    33    41    42    2
    34    30    31    1
    35    31    32    1
    36     9    10   ar
    37    10    11   ar
    38    16    17   ar
    39    17    18   ar
    40    18    13   ar
    41    11     1   ar
    42    10     4   ar
    43    32    27    1
    44    42    33    1
    45    41    35    1
    46    19    23    1
    47    19    24    1
@<TRIPOS>MOLECULE
*****
 42 47 0 0 0
SMALL
GASTEIGER

@<TRIPOS>ATOM
      1 C         144.5267  142.1488  159.1002 C.ar    1  UNL1        0.1658
      2 C         145.4881  142.6362  158.0571 C.ar    1  UNL1        0.1363
      3 N         145.6820  141.8541  156.7919 N.ar    1  UNL1       -0.2392
      4 C         144.9145  140.5846  156.5699 C.ar    1  UNL1        0.0975
      5 C         145.1084  139.8024  155.3047 C.ar    1  UNL1        0.0255
      6 C         144.3410  138.5329  155.0826 C.ar    1  UNL1        0.0623
      7 C         143.3795  138.0455  156.1258 C.ar    1  UNL1        0.2611
      8 O         142.6121  136.7760  155.9038 O.2     1  UNL1       -0.2670
      9 N         143.1856  138.8276  157.3910 N.ar    1  UNL1       -0.2926
     10 C         143.9531  140.0971  157.6130 C.ar    1  UNL1        0.0832
     11 C         143.7592  140.8793  158.8782 C.ar    1  UNL1        0.0579
     12 O         144.3327  142.9309  160.3654 O.3     1  UNL1       -0.4519
     13 C         140.1777  143.8007  161.8584 C.ar    1  UNL1        0.1219
     14 C         141.1114  142.9654  162.6832 C.ar    1  UNL1        0.0230
     15 C         142.4965  142.6755  162.1855 C.ar    1  UNL1        0.0389
     16 C         142.9477  143.2209  160.8631 C.ar    1  UNL1        0.1455
     17 C         142.0139  144.0562  160.0382 C.ar    1  UNL1        0.0389
     18 C         140.6289  144.3461  160.5359 C.ar    1  UNL1        0.0230
     19 N         137.4077  144.3806  162.8538 N.3     1  UNL1       -0.2035
     20 S         138.7927  144.0906  162.3561 S.O2    1  UNL1        0.0572
     21 O         138.2195  143.2702  161.2389 O.2     1  UNL1       -0.1532
     22 O         139.3659  144.9111  163.4733 O.2     1  UNL1       -0.1532
     23 H         136.7262  143.9203  162.2503 H       1  UNL1        0.1442
     24 H         137.2462  145.3877  162.8426 H       1  UNL1        0.1442
     25 C         142.2243  138.3402  158.4341 C.3     1  UNL1        0.1264
     26 C         142.7119  137.4733  159.5569 C.3     1  UNL1        0.0970
     27 N         142.7173  137.9985  160.9620 N.3     1  UNL1       -0.2710
     28 C         141.4518  137.9993  161.7673 C.3     1  UNL1        0.0728
     29 C         141.4572  138.5244  163.1723 C.3     1  UNL1        0.0298
     30 C         142.7282  139.0488  163.7721 C.3     1  UNL1        0.1147
     31 C         143.9937  139.0479  162.9669 C.3     1  UNL1        0.0298
     32 C         143.9883  138.5227  161.5618 C.3     1  UNL1        0.0728
     33 C         142.7336  139.5739  165.1772 C.2     1  UNL1        0.3507
     34 N         142.9158  141.0066  165.5823 N.2     1  UNL1       -0.0350
     35 C         142.8525  141.0768  167.0793 C.2     1  UNL1        0.2326
     36 C         142.9678  142.2262  168.0360 C.2     1  UNL1        0.0612
     37 C         142.8619  141.9863  169.5129 C.2     1  UNL1        0.0577
     38 CL        142.9772  143.1357  170.4697 Cl      1  UNL1       -0.0824
     39 C         142.6407  140.5969  170.0330 C.2     1  UNL1       -0.0058
     40 C         142.5254  139.4473  169.0763 C.3     1  UNL1        0.1046
     41 C         142.6313  139.6873  167.5994 C.2     1  UNL1        0.2175
     42 N         142.5578  138.7585  166.4238 N.2     1  UNL1       -0.0389
@<TRIPOS>BOND
     1    19    20    1
     2    20    21    2
     3    20    22    2
     4    20    13    1
     5    13    14   ar
     6    14    15   ar
     7    15    16   ar
     8    16    12    1
     9    12     1    1
    10     1     2   ar
    11     2     3   ar
    12     3     4   ar
    13     4     5   ar
    14     5     6   ar
    15     6     7   ar
    16     7     8    2
    17     7     9   ar
    18     9    25    1
    19    25    26    1
    20    26    27    1
    21    27    28    1
    22    28    29    1
    23    29    30    1
    24    30    33    1
    25    33    34    2
    26    34    35    1
    27    35    36    2
    28    36    37    1
    29    37    38    1
    30    37    39    2
    31    39    40    1
    32    40    41    1
    33    41    42    2
    34    30    31    1
    35    31    32    1
    36     9    10   ar
    37    10    11   ar
    38    16    17   ar
    39    17    18   ar
    40    18    13   ar
    41    11     1   ar
    42    10     4   ar
    43    32    27    1
    44    42    33    1
    45    41    35    1
    46    19    23    1
    47    19    24    1
@<TRIPOS>MOLECULE
*****
 42 47 0 0 0
SMALL
GASTEIGER

@<TRIPOS>ATOM
      1 C         141.3425  138.6919  164.5394 C.ar    1  UNL1        0.1658
      2 C         140.2959  137.6267  164.6802 C.ar    1  UNL1        0.1363
      3 N         139.0875  137.6405  163.7916 N.ar    1  UNL1       -0.2392
      4 C         138.9258  138.7194  162.7622 C.ar    1  UNL1        0.0975
      5 C         137.7174  138.7332  161.8735 C.ar    1  UNL1        0.0255
      6 C         137.5557  139.8121  160.8441 C.ar    1  UNL1        0.0623
      7 C         138.6024  140.8774  160.7033 C.ar    1  UNL1        0.2611
      8 O         138.4406  141.9563  159.6739 O.2     1  UNL1       -0.2670
      9 N         139.8107  140.8636  161.5919 N.ar    1  UNL1       -0.2926
     10 C         139.9724  139.7846  162.6213 C.ar    1  UNL1        0.0832
     11 C         141.1808  139.7709  163.5099 C.ar    1  UNL1        0.0579
     12 O         142.5509  138.6782  165.4280 O.3     1  UNL1       -0.4519
     13 C         142.8985  141.6387  168.7992 C.ar    1  UNL1        0.1219
     14 C         143.0100  142.1043  167.3777 C.ar    1  UNL1        0.0230
     15 C         142.8942  141.1175  166.2539 C.ar    1  UNL1        0.0389
     16 C         142.6668  139.6650  166.5517 C.ar    1  UNL1        0.1455
     17 C         142.5553  139.1994  167.9733 C.ar    1  UNL1        0.0389
     18 C         142.6712  140.1862  169.0970 C.ar    1  UNL1        0.0230
     19 N         143.1302  143.6123  171.0466 N.3     1  UNL1       -0.2035
     20 S         143.0144  142.6255  169.9229 S.O2    1  UNL1        0.0572
     21 O         144.4370  142.9002  169.5349 O.2     1  UNL1       -0.1532
     22 O         141.5918  142.3507  170.3108 O.2     1  UNL1       -0.1532
     23 H         144.0686  144.0122  171.0526 H       1  UNL1        0.1442
     24 H         142.9565  143.1395  171.9336 H       1  UNL1        0.1442
     25 C         140.8573  141.9288  161.4511 C.3     1  UNL1        0.1264
     26 C         141.9898  141.7445  160.4850 C.3     1  UNL1        0.0970
     27 N         142.0631  140.5053  159.6428 N.3     1  UNL1       -0.2710
     28 C         141.4145  140.4780  158.2906 C.3     1  UNL1        0.0728
     29 C         141.4878  139.2389  157.4485 C.3     1  UNL1        0.0298
     30 C         142.2095  138.0269  157.9586 C.3     1  UNL1        0.1147
     31 C         142.8581  138.0541  159.3109 C.3     1  UNL1        0.0298
     32 C         142.7848  139.2934  160.1530 C.3     1  UNL1        0.0728
     33 C         142.2828  136.7878  157.1165 C.2     1  UNL1        0.3507
     34 N         143.2501  135.6555  157.2962 N.2     1  UNL1       -0.0350
     35 C         142.9667  134.6313  156.2376 C.2     1  UNL1        0.2326
     36 C         143.6013  133.3086  155.9252 C.2     1  UNL1        0.0612
     37 C         143.0934  132.4851  154.7790 C.2     1  UNL1        0.0577
     38 CL        143.7280  131.1624  154.4666 Cl      1  UNL1       -0.0824
     39 C         141.9510  132.9844  153.9450 C.2     1  UNL1       -0.0058
     40 C         141.3163  134.3072  154.2573 C.3     1  UNL1        0.1046
     41 C         141.8242  135.1307  155.4036 C.2     1  UNL1        0.2175
     42 N         141.4015  136.4634  155.9468 N.2     1  UNL1       -0.0389
@<TRIPOS>BOND
     1    19    20    1
     2    20    21    2
     3    20    22    2
     4    20    13    1
     5    13    14   ar
     6    14    15   ar
     7    15    16   ar
     8    16    12    1
     9    12     1    1
    10     1     2   ar
    11     2     3   ar
    12     3     4   ar
    13     4     5   ar
    14     5     6   ar
    15     6     7   ar
    16     7     8    2
    17     7     9   ar
    18     9    25    1
    19    25    26    1
    20    26    27    1
    21    27    28    1
    22    28    29    1
    23    29    30    1
    24    30    33    1
    25    33    34    2
    26    34    35    1
    27    35    36    2
    28    36    37    1
    29    37    38    1
    30    37    39    2
    31    39    40    1
    32    40    41    1
    33    41    42    2
    34    30    31    1
    35    31    32    1
    36     9    10   ar
    37    10    11   ar
    38    16    17   ar
    39    17    18   ar
    40    18    13   ar
    41    11     1   ar
    42    10     4   ar
    43    32    27    1
    44    42    33    1
    45    41    35    1
    46    19    23    1
    47    19    24    1
@<TRIPOS>MOLECULE
*****
 42 47 0 0 0
SMALL
GASTEIGER

@<TRIPOS>ATOM
      1 C         140.9060  140.5829  159.8593 C.ar    1  UNL1        0.1658
      2 C         140.1739  139.8001  158.8100 C.ar    1  UNL1        0.1363
      3 N         139.5420  140.5097  157.6493 N.ar    1  UNL1       -0.2392
      4 C         139.6423  142.0022  157.5380 C.ar    1  UNL1        0.0975
      5 C         139.0104  142.7119  156.3773 C.ar    1  UNL1        0.0255
      6 C         139.1107  144.2044  156.2660 C.ar    1  UNL1        0.0623
      7 C         139.8429  144.9872  157.3155 C.ar    1  UNL1        0.2611
      8 O         139.9431  146.4797  157.2042 O.2     1  UNL1       -0.2670
      9 N         140.4747  144.2776  158.4761 N.ar    1  UNL1       -0.2926
     10 C         140.3744  142.7851  158.5874 C.ar    1  UNL1        0.0832
     11 C         141.0062  142.0754  159.7480 C.ar    1  UNL1        0.0579
     12 O         141.5378  139.8732  161.0200 O.3     1  UNL1       -0.4519
     13 C         139.0900  138.9092  164.6709 C.ar    1  UNL1        0.1219
     14 C         140.4793  138.3606  164.5331 C.ar    1  UNL1        0.0230
     15 C         141.2952  138.6819  163.3161 C.ar    1  UNL1        0.0389
     16 C         140.7219  139.5519  162.2370 C.ar    1  UNL1        0.1455
     17 C         139.3326  140.1004  162.3748 C.ar    1  UNL1        0.0389
     18 C         138.5167  139.7791  163.5918 C.ar    1  UNL1        0.0230
     19 N         137.4582  138.2665  167.1048 N.3     1  UNL1       -0.2035
     20 S         138.2741  138.5878  165.8878 S.O2    1  UNL1        0.0572
     21 O         138.5169  137.1246  165.6642 O.2     1  UNL1       -0.1532
     22 O         138.0313  140.0510  166.1114 O.2     1  UNL1       -0.1532
     23 H         137.4289  137.2556  167.2373 H       1  UNL1        0.1442
     24 H         136.5097  138.6209  166.9815 H       1  UNL1        0.1442
     25 C         141.2068  145.0604  159.5254 C.3     1  UNL1        0.1264
     26 C         140.5034  145.4636  160.7875 C.3     1  UNL1        0.0970
     27 N         140.6629  144.6400  162.0310 N.3     1  UNL1       -0.2710
     28 C         139.4563  144.2501  162.8322 C.3     1  UNL1        0.0728
     29 C         139.6158  143.4265  164.0757 C.3     1  UNL1        0.0298
     30 C         140.9819  142.9927  164.5179 C.3     1  UNL1        0.1147
     31 C         142.1886  143.3826  163.7166 C.3     1  UNL1        0.0298
     32 C         142.0290  144.2062  162.4731 C.3     1  UNL1        0.0728
     33 C         141.1414  142.1691  165.7614 C.2     1  UNL1        0.3507
     34 N         142.1720  141.1026  165.9864 N.2     1  UNL1       -0.0350
     35 C         141.9658  140.5417  167.3622 C.2     1  UNL1        0.2326
     36 C         142.6829  139.4686  168.1265 C.2     1  UNL1        0.0612
     37 C         142.2420  139.1152  169.5160 C.2     1  UNL1        0.0577
     38 CL        142.9591  138.0421  170.2802 Cl      1  UNL1       -0.0824
     39 C         141.0841  139.8350  170.1413 C.2     1  UNL1       -0.0058
     40 C         140.3669  140.9083  169.3770 C.3     1  UNL1        0.1046
     41 C         140.8078  141.2616  167.9875 C.2     1  UNL1        0.2175
     42 N         140.2983  142.2674  166.9981 N.2     1  UNL1       -0.0389
@<TRIPOS>BOND
     1    19    20    1
     2    20    21    2
     3    20    22    2
     4    20    13    1
     5    13    14   ar
     6    14    15   ar
     7    15    16   ar
     8    16    12    1
     9    12     1    1
    10     1     2   ar
    11     2     3   ar
    12     3     4   ar
    13     4     5   ar
    14     5     6   ar
    15     6     7   ar
    16     7     8    2
    17     7     9   ar
    18     9    25    1
    19    25    26    1
    20    26    27    1
    21    27    28    1
    22    28    29    1
    23    29    30    1
    24    30    33    1
    25    33    34    2
    26    34    35    1
    27    35    36    2
    28    36    37    1
    29    37    38    1
    30    37    39    2
    31    39    40    1
    32    40    41    1
    33    41    42    2
    34    30    31    1
    35    31    32    1
    36     9    10   ar
    37    10    11   ar
    38    16    17   ar
    39    17    18   ar
    40    18    13   ar
    41    11     1   ar
    42    10     4   ar
    43    32    27    1
    44    42    33    1
    45    41    35    1
    46    19    23    1
    47    19    24    1
@<TRIPOS>MOLECULE
*****
 42 47 0 0 0
SMALL
GASTEIGER

@<TRIPOS>ATOM
      1 C         140.5849  145.0802  158.2669 C.ar    1  UNL1        0.1658
      2 C         140.1732  146.0785  157.2259 C.ar    1  UNL1        0.1363
      3 N         139.2632  145.6641  156.1078 N.ar    1  UNL1       -0.2392
      4 C         138.7649  144.2514  156.0308 C.ar    1  UNL1        0.0975
      5 C         137.8548  143.8370  154.9126 C.ar    1  UNL1        0.0255
      6 C         137.3564  142.4243  154.8356 C.ar    1  UNL1        0.0623
      7 C         137.7682  141.4260  155.8768 C.ar    1  UNL1        0.2611
      8 O         137.2698  140.0133  155.7998 O.2     1  UNL1       -0.2670
      9 N         138.6782  141.8404  156.9948 N.ar    1  UNL1       -0.2926
     10 C         139.1765  143.2531  157.0718 C.ar    1  UNL1        0.0832
     11 C         140.0865  143.6675  158.1899 C.ar    1  UNL1        0.0579
     12 O         141.4950  145.4945  159.3851 O.3     1  UNL1       -0.4519
     13 C         140.5530  144.2889  163.6170 C.ar    1  UNL1        0.1219
     14 C         141.8629  143.8977  162.9996 C.ar    1  UNL1        0.0230
     15 C         142.1769  144.2996  161.5889 C.ar    1  UNL1        0.0389
     16 C         141.1810  145.0926  160.7957 C.ar    1  UNL1        0.1455
     17 C         139.8711  145.4838  161.4131 C.ar    1  UNL1        0.0389
     18 C         139.5571  145.0820  162.8237 C.ar    1  UNL1        0.0230
     19 N         139.9250  143.4852  166.4383 N.3     1  UNL1       -0.2035
     20 S         140.2390  143.8870  165.0276 S.O2    1  UNL1        0.0572
     21 O         141.5323  143.1306  165.0999 O.2     1  UNL1       -0.1532
     22 O         138.9458  144.6435  164.9552 O.2     1  UNL1       -0.1532
     23 H         140.6830  142.9091  166.8044 H       1  UNL1        0.1442
     24 H         139.0551  142.9529  166.4545 H       1  UNL1        0.1442
     25 C         139.0898  140.8421  158.0359 C.3     1  UNL1        0.1264
     26 C         138.1249  140.4386  159.1111 C.3     1  UNL1        0.0970
     27 N         138.5853  140.3461  160.5358 N.3     1  UNL1       -0.2710
     28 C         137.6993  139.7190  161.5711 C.3     1  UNL1        0.0728
     29 C         138.1596  139.6265  162.9957 C.3     1  UNL1        0.0298
     30 C         139.5059  140.1612  163.3851 C.3     1  UNL1        0.1147
     31 C         140.3919  140.7883  162.3498 C.3     1  UNL1        0.0298
     32 C         139.9316  140.8808  160.9252 C.3     1  UNL1        0.0728
     33 C         139.9662  140.0687  164.8097 C.2     1  UNL1        0.3507
     34 N         139.1256  140.3217  166.0260 N.2     1  UNL1       -0.0350
     35 C         139.9878  140.1163  167.2362 C.2     1  UNL1        0.2326
     36 C         139.6997  140.2262  168.7042 C.2     1  UNL1        0.0612
     37 C         140.7851  139.9562  169.7037 C.2     1  UNL1        0.0577
     38 CL        140.4970  140.0660  171.1717 Cl      1  UNL1       -0.0824
     39 C         142.1585  139.5763  169.2353 C.2     1  UNL1       -0.0058
     40 C         142.4466  139.4665  167.7673 C.3     1  UNL1        0.1046
     41 C         141.3612  139.7365  166.7677 C.2     1  UNL1        0.2175
     42 N         141.3479  139.7071  165.2681 N.2     1  UNL1       -0.0389
@<TRIPOS>BOND
     1    19    20    1
     2    20    21    2
     3    20    22    2
     4    20    13    1
     5    13    14   ar
     6    14    15   ar
     7    15    16   ar
     8    16    12    1
     9    12     1    1
    10     1     2   ar
    11     2     3   ar
    12     3     4   ar
    13     4     5   ar
    14     5     6   ar
    15     6     7   ar
    16     7     8    2
    17     7     9   ar
    18     9    25    1
    19    25    26    1
    20    26    27    1
    21    27    28    1
    22    28    29    1
    23    29    30    1
    24    30    33    1
    25    33    34    2
    26    34    35    1
    27    35    36    2
    28    36    37    1
    29    37    38    1
    30    37    39    2
    31    39    40    1
    32    40    41    1
    33    41    42    2
    34    30    31    1
    35    31    32    1
    36     9    10   ar
    37    10    11   ar
    38    16    17   ar
    39    17    18   ar
    40    18    13   ar
    41    11     1   ar
    42    10     4   ar
    43    32    27    1
    44    42    33    1
    45    41    35    1
    46    19    23    1
    47    19    24    1
@<TRIPOS>MOLECULE
*****
 42 47 0 0 0
SMALL
GASTEIGER

@<TRIPOS>ATOM
      1 C         143.2445  142.5188  164.5386 C.ar    1  UNL1        0.1658
      2 C         144.1077  143.2533  163.5562 C.ar    1  UNL1        0.1363
      3 N         143.4830  144.1763  162.5523 N.ar    1  UNL1       -0.2392
      4 C         141.9950  144.3647  162.5308 C.ar    1  UNL1        0.0975
      5 C         141.3704  145.2877  161.5269 C.ar    1  UNL1        0.0255
      6 C         139.8824  145.4761  161.5054 C.ar    1  UNL1        0.0623
      7 C         139.0191  144.7415  162.4878 C.ar    1  UNL1        0.2611
      8 O         137.5311  144.9299  162.4663 O.2     1  UNL1       -0.2670
      9 N         139.6438  143.8185  163.4917 N.ar    1  UNL1       -0.2926
     10 C         141.1318  143.6301  163.5132 C.ar    1  UNL1        0.0832
     11 C         141.7565  142.7072  164.5171 C.ar    1  UNL1        0.0579
     12 O         143.8692  141.5957  165.5425 O.3     1  UNL1       -0.4519
     13 C         141.8957  140.9448  169.5340 C.ar    1  UNL1        0.1219
     14 C         142.6290  142.2243  169.2597 C.ar    1  UNL1        0.0230
     15 C         143.2868  142.4413  167.9291 C.ar    1  UNL1        0.0389
     16 C         143.2113  141.3788  166.8730 C.ar    1  UNL1        0.1455
     17 C         142.4780  140.0993  167.1474 C.ar    1  UNL1        0.0389
     18 C         141.8202  139.8824  168.4778 C.ar    1  UNL1        0.0230
     19 N         140.5800  140.5109  172.1949 N.3     1  UNL1       -0.2035
     20 S         141.2378  140.7279  170.8644 S.O2    1  UNL1        0.0572
     21 O         141.7833  142.0389  171.3479 O.2     1  UNL1       -0.1532
     22 O         140.6924  139.4169  170.3810 O.2     1  UNL1       -0.1532
     23 H         140.7805  141.3022  172.8065 H       1  UNL1        0.1442
     24 H         140.9405  139.6551  172.6169 H       1  UNL1        0.1442
     25 C         138.7806  143.0839  164.4741 C.3     1  UNL1        0.1264
     26 C         138.1616  141.7715  164.0940 C.3     1  UNL1        0.0970
     27 N         138.6483  141.0362  162.8805 N.3     1  UNL1       -0.2710
     28 C         137.9986  141.2729  161.5494 C.3     1  UNL1        0.0728
     29 C         138.4852  140.5376  160.3360 C.3     1  UNL1        0.0298
     30 C         139.6217  139.5657  160.4535 C.3     1  UNL1        0.1147
     31 C         140.2714  139.3290  161.7846 C.3     1  UNL1        0.0298
     32 C         139.7847  140.0643  162.9981 C.3     1  UNL1        0.0728
     33 C         140.1083  138.8304  159.2401 C.2     1  UNL1        0.3507
     34 N         139.2685  138.4002  158.0741 N.2     1  UNL1       -0.0350
     35 C         140.1614  137.7002  157.0929 C.2     1  UNL1        0.2326
     36 C         139.8870  137.0646  155.7622 C.2     1  UNL1        0.0612
     37 C         141.0044  136.4267  154.9911 C.2     1  UNL1        0.0577
     38 CL        140.7300  135.7911  153.6604 Cl      1  UNL1       -0.0824
     39 C         142.3960  136.4243  155.5507 C.2     1  UNL1       -0.0058
     40 C         142.6704  137.0598  156.8815 C.3     1  UNL1        0.1046
     41 C         141.5531  137.6978  157.6526 C.2     1  UNL1        0.2175
     42 N         141.5203  138.3963  158.9796 N.2     1  UNL1       -0.0389
@<TRIPOS>BOND
     1    19    20    1
     2    20    21    2
     3    20    22    2
     4    20    13    1
     5    13    14   ar
     6    14    15   ar
     7    15    16   ar
     8    16    12    1
     9    12     1    1
    10     1     2   ar
    11     2     3   ar
    12     3     4   ar
    13     4     5   ar
    14     5     6   ar
    15     6     7   ar
    16     7     8    2
    17     7     9   ar
    18     9    25    1
    19    25    26    1
    20    26    27    1
    21    27    28    1
    22    28    29    1
    23    29    30    1
    24    30    33    1
    25    33    34    2
    26    34    35    1
    27    35    36    2
    28    36    37    1
    29    37    38    1
    30    37    39    2
    31    39    40    1
    32    40    41    1
    33    41    42    2
    34    30    31    1
    35    31    32    1
    36     9    10   ar
    37    10    11   ar
    38    16    17   ar
    39    17    18   ar
    40    18    13   ar
    41    11     1   ar
    42    10     4   ar
    43    32    27    1
    44    42    33    1
    45    41    35    1
    46    19    23    1
    47    19    24    1
