@<TRIPOS>MOLECULE
*****
 32 34 0 0 0
SMALL
GASTEIGER

@<TRIPOS>ATOM
      1 C         140.8396  140.5448  168.6608 C.ar    1  UNL1        0.0764
      2 C         140.0309  140.0280  167.5079 C.ar    1  UNL1        0.0522
      3 C         138.6468  139.4986  167.7402 C.ar    1  UNL1        0.1515
      4 N         138.0713  139.4861  169.1255 N.ar    1  UNL1       -0.1329
      5 N         138.8799  140.0029  170.2783 N.ar    1  UNL1       -0.1409
      6 C         140.2641  140.5323  170.0459 C.ar    1  UNL1        0.1691
      7 C         141.0727  141.0491  171.1988 C.2     1  UNL1        0.2635
      8 N         142.3714  140.3906  171.5590 N.am    1  UNL1       -0.3240
      9 O         140.5826  142.2244  171.9916 O.2     1  UNL1       -0.2686
     10 H         142.6931  139.6192  171.0387 H       1  UNL1        0.1453
     11 H         142.9021  140.7298  172.3156 H       1  UNL1        0.1453
     12 N         142.2237  141.0742  168.4285 N.pl3   1  UNL1       -0.2965
     13 H         142.7005  141.5401  169.1529 H       1  UNL1        0.1537
     14 C         144.3711  143.1118  164.1580 C.3     1  UNL1        0.0530
     15 C         143.9549  141.9126  164.9572 C.ar    1  UNL1        0.0713
     16 N         143.2974  142.0930  166.2932 N.ar    1  UNL1       -0.2341
     17 C         142.8812  140.8938  167.0924 C.ar    1  UNL1        0.1318
     18 C         143.1226  139.5141  166.5555 C.ar    1  UNL1        0.0353
     19 C         143.7801  139.3337  165.2195 C.ar    1  UNL1        0.0155
     20 C         144.1963  140.5329  164.4203 C.ar    1  UNL1        0.0713
     21 CL        144.8538  140.3524  163.0842 Cl      1  UNL1       -0.0810
     22 N         137.8382  138.9818  166.5874 N.pl3   1  UNL1       -0.3170
     23 H         136.8948  138.7335  166.7200 H       1  UNL1        0.1482
     24 C         138.4669  138.8434  165.2327 C.3     1  UNL1        0.0845
     25 C         139.2574  137.6141  164.8947 C.3     1  UNL1        0.0209
     26 C         139.8861  137.4757  163.5399 C.3     1  UNL1        0.0018
     27 C         139.7245  138.5665  162.5231 C.3     1  UNL1        0.0015
     28 C         138.9340  139.7957  162.8610 C.3     1  UNL1        0.0172
     29 C         138.3053  139.9342  164.2157 C.3     1  UNL1        0.0689
     30 N         137.5149  141.1634  164.5537 N.3     1  UNL1       -0.3209
     31 H         137.1628  141.0896  165.5081 H       1  UNL1        0.1189
     32 H         136.7303  141.2514  163.9078 H       1  UNL1        0.1189
@<TRIPOS>BOND
     1    14    15    1
     2    15    16   ar
     3    16    17   ar
     4    17    12    1
     5    12     1    1
     6     1     2   ar
     7     2     3   ar
     8     3    22    1
     9    24    22    1
    10    24    25    1
    11    25    26    1
    12    26    27    1
    13    27    28    1
    14    28    29    1
    15    29    30    1
    16     3     4   ar
    17     4     5   ar
    18     5     6   ar
    19     6     7    1
    20     7     8   am
    21     7     9    2
    22    17    18   ar
    23    18    19   ar
    24    19    20   ar
    25    20    21    1
    26    20    15   ar
    27     6     1   ar
    28    29    24    1
    29    12    13    1
    30    22    23    1
    31    30    31    1
    32    30    32    1
    33     8    10    1
    34     8    11    1
@<TRIPOS>MOLECULE
*****
 32 34 0 0 0
SMALL
GASTEIGER

@<TRIPOS>ATOM
      1 C         137.8933  140.0026  163.8348 C.ar    1  UNL1        0.0764
      2 C         138.0377  140.0903  165.3253 C.ar    1  UNL1        0.0522
      3 C         138.7435  139.0000  166.0758 C.ar    1  UNL1        0.1515
      4 N         139.3049  137.8222  165.3358 N.ar    1  UNL1       -0.1329
      5 N         139.1604  137.7346  163.8454 N.ar    1  UNL1       -0.1409
      6 C         138.4546  138.8248  163.0949 C.ar    1  UNL1        0.1691
      7 C         138.3101  138.7371  161.6044 C.2     1  UNL1        0.2635
      8 N         139.3867  138.0917  160.7832 N.am    1  UNL1       -0.3240
      9 O         137.0891  139.2950  160.9351 O.2     1  UNL1       -0.2686
     10 H         140.1881  137.7256  161.2225 H       1  UNL1        0.1453
     11 H         139.2919  138.0342  159.8050 H       1  UNL1        0.1453
     12 N         137.1874  141.0929  163.0843 N.pl3   1  UNL1       -0.2965
     13 H         136.2603  140.9608  162.7805 H       1  UNL1        0.1537
     14 C         140.0751  144.0348  159.9210 C.3     1  UNL1        0.0530
     15 C         139.3380  143.8553  161.2151 C.ar    1  UNL1        0.0713
     16 N         138.6313  142.5639  161.5027 N.ar    1  UNL1       -0.2341
     17 C         137.8942  142.3843  162.7967 C.ar    1  UNL1        0.1318
     18 C         137.8639  143.4962  163.8031 C.ar    1  UNL1        0.0353
     19 C         138.5707  144.7875  163.5155 C.ar    1  UNL1        0.0155
     20 C         139.3077  144.9671  162.2215 C.ar    1  UNL1        0.0713
     21 CL        140.0145  146.2586  161.9338 Cl      1  UNL1       -0.0810
     22 N         138.8880  139.0876  167.5662 N.pl3   1  UNL1       -0.3170
     23 H         138.5690  138.3508  168.1359 H       1  UNL1        0.1482
     24 C         139.5185  140.2980  168.1887 C.3     1  UNL1        0.0845
     25 C         140.4871  141.1285  167.4001 C.3     1  UNL1        0.0209
     26 C         141.1176  142.3389  168.0227 C.3     1  UNL1        0.0018
     27 C         140.7795  142.7187  169.4338 C.3     1  UNL1        0.0015
     28 C         139.8108  141.8881  170.2224 C.3     1  UNL1        0.0172
     29 C         139.1803  140.6778  169.5999 C.3     1  UNL1        0.0689
     30 N         138.2117  139.8473  170.3886 N.3     1  UNL1       -0.3209
     31 H         137.8839  139.0705  169.8146 H       1  UNL1        0.1189
     32 H         137.4173  140.4236  170.6664 H       1  UNL1        0.1189
@<TRIPOS>BOND
     1    14    15    1
     2    15    16   ar
     3    16    17   ar
     4    17    12    1
     5    12     1    1
     6     1     2   ar
     7     2     3   ar
     8     3    22    1
     9    24    22    1
    10    24    25    1
    11    25    26    1
    12    26    27    1
    13    27    28    1
    14    28    29    1
    15    29    30    1
    16     3     4   ar
    17     4     5   ar
    18     5     6   ar
    19     6     7    1
    20     7     8   am
    21     7     9    2
    22    17    18   ar
    23    18    19   ar
    24    19    20   ar
    25    20    21    1
    26    20    15   ar
    27     6     1   ar
    28    29    24    1
    29    12    13    1
    30    22    23    1
    31    30    31    1
    32    30    32    1
    33     8    10    1
    34     8    11    1
@<TRIPOS>MOLECULE
*****
 32 34 0 0 0
SMALL
GASTEIGER

@<TRIPOS>ATOM
      1 C         140.3705  139.8885  167.0151 C.ar    1  UNL1        0.0764
      2 C         140.1688  139.1303  165.7366 C.ar    1  UNL1        0.0522
      3 C         138.9213  138.3228  165.5323 C.ar    1  UNL1        0.1515
      4 N         137.8755  138.2736  166.6065 N.ar    1  UNL1       -0.1329
      5 N         138.0772  139.0318  167.8849 N.ar    1  UNL1       -0.1409
      6 C         139.3247  139.8392  168.0892 C.ar    1  UNL1        0.1691
      7 C         139.5263  140.5975  169.3677 C.2     1  UNL1        0.2635
      8 N         139.2738  139.9267  170.6854 N.am    1  UNL1       -0.3240
      9 O         139.9806  142.0265  169.3285 O.2     1  UNL1       -0.2686
     10 H         138.9756  138.9887  170.7111 H       1  UNL1        0.1453
     11 H         139.4061  140.4243  171.5244 H       1  UNL1        0.1453
     12 N         141.6180  140.6959  167.2194 N.pl3   1  UNL1       -0.2965
     13 H         142.2125  140.4997  167.9792 H       1  UNL1        0.1537
     14 C         140.1301  144.6549  164.2006 C.3     1  UNL1        0.0530
     15 C         141.2158  143.7819  164.7566 C.ar    1  UNL1        0.0713
     16 N         140.8741  142.6754  165.7100 N.ar    1  UNL1       -0.2341
     17 C         141.9598  141.8024  166.2660 C.ar    1  UNL1        0.1318
     18 C         143.3872  142.0358  165.8686 C.ar    1  UNL1        0.0353
     19 C         143.7289  143.1422  164.9152 C.ar    1  UNL1        0.0155
     20 C         142.6432  144.0153  164.3592 C.ar    1  UNL1        0.0713
     21 CL        142.9850  145.1218  163.4058 Cl      1  UNL1       -0.0810
     22 N         138.7196  137.5646  164.2539 N.pl3   1  UNL1       -0.3170
     23 H         138.3830  136.6398  164.2779 H       1  UNL1        0.1482
     24 C         139.0309  138.2155  162.9388 C.3     1  UNL1        0.0845
     25 C         138.0623  139.1897  162.3363 C.3     1  UNL1        0.0209
     26 C         138.3736  139.8406  161.0212 C.3     1  UNL1        0.0018
     27 C         139.6534  139.5173  160.3086 C.3     1  UNL1        0.0015
     28 C         140.6219  138.5432  160.9112 C.3     1  UNL1        0.0172
     29 C         140.3107  137.8923  162.2262 C.3     1  UNL1        0.0689
     30 N         141.2792  136.9182  162.8288 N.3     1  UNL1       -0.3209
     31 H         140.9098  136.5761  163.7158 H       1  UNL1        0.1189
     32 H         142.1731  137.3825  162.9891 H       1  UNL1        0.1189
@<TRIPOS>BOND
     1    14    15    1
     2    15    16   ar
     3    16    17   ar
     4    17    12    1
     5    12     1    1
     6     1     2   ar
     7     2     3   ar
     8     3    22    1
     9    24    22    1
    10    24    25    1
    11    25    26    1
    12    26    27    1
    13    27    28    1
    14    28    29    1
    15    29    30    1
    16     3     4   ar
    17     4     5   ar
    18     5     6   ar
    19     6     7    1
    20     7     8   am
    21     7     9    2
    22    17    18   ar
    23    18    19   ar
    24    19    20   ar
    25    20    21    1
    26    20    15   ar
    27     6     1   ar
    28    29    24    1
    29    12    13    1
    30    22    23    1
    31    30    31    1
    32    30    32    1
    33     8    10    1
    34     8    11    1
@<TRIPOS>MOLECULE
*****
 32 34 0 0 0
SMALL
GASTEIGER

@<TRIPOS>ATOM
      1 C         139.4413  140.8439  165.3661 C.ar    1  UNL1        0.0764
      2 C         139.9833  140.8503  166.7648 C.ar    1  UNL1        0.0522
      3 C         139.4010  139.9330  167.7990 C.ar    1  UNL1        0.1515
      4 N         138.2768  139.0092  167.4344 N.ar    1  UNL1       -0.1329
      5 N         137.7349  139.0029  166.0357 N.ar    1  UNL1       -0.1409
      6 C         138.3171  139.9202  165.0016 C.ar    1  UNL1        0.1691
      7 C         137.7752  139.9139  163.6029 C.2     1  UNL1        0.2635
      8 N         136.9121  141.0449  163.1278 N.am    1  UNL1       -0.3240
      9 O         138.0964  138.7764  162.6793 O.2     1  UNL1       -0.2686
     10 H         136.7013  141.7915  163.7340 H       1  UNL1        0.1453
     11 H         136.5564  141.0407  162.2098 H       1  UNL1        0.1453
     12 N         140.0236  141.7613  164.3320 N.pl3   1  UNL1       -0.2965
     13 H         139.4346  142.3568  163.8146 H       1  UNL1        0.1537
     14 C         144.2507  139.5913  162.2287 C.3     1  UNL1        0.0530
     15 C         143.6168  140.6863  163.0346 C.ar    1  UNL1        0.0713
     16 N         142.1372  140.6763  163.2804 N.ar    1  UNL1       -0.2341
     17 C         141.5034  141.7713  164.0862 C.ar    1  UNL1        0.1318
     18 C         142.3492  142.8762  164.6462 C.ar    1  UNL1        0.0353
     19 C         143.8289  142.8862  164.4004 C.ar    1  UNL1        0.0155
     20 C         144.4627  141.7912  163.5946 C.ar    1  UNL1        0.0713
     21 CL        145.9424  141.8012  163.3488 Cl      1  UNL1       -0.0810
     22 N         139.9429  139.9393  169.1976 N.pl3   1  UNL1       -0.3170
     23 H         139.6078  139.2910  169.8583 H       1  UNL1        0.1482
     24 C         140.9954  140.9336  169.5896 C.3     1  UNL1        0.0845
     25 C         140.6034  142.3315  169.9664 C.3     1  UNL1        0.0209
     26 C         141.6560  143.3258  170.3584 C.3     1  UNL1        0.0018
     27 C         143.1005  142.9220  170.3736 C.3     1  UNL1        0.0015
     28 C         143.4925  141.5240  169.9968 C.3     1  UNL1        0.0172
     29 C         142.4400  140.5298  169.6048 C.3     1  UNL1        0.0689
     30 N         142.8320  139.1318  169.2280 N.3     1  UNL1       -0.3209
     31 H         141.9966  138.5964  168.9919 H       1  UNL1        0.1189
     32 H         143.3090  138.6891  170.0134 H       1  UNL1        0.1189
@<TRIPOS>BOND
     1    14    15    1
     2    15    16   ar
     3    16    17   ar
     4    17    12    1
     5    12     1    1
     6     1     2   ar
     7     2     3   ar
     8     3    22    1
     9    24    22    1
    10    24    25    1
    11    25    26    1
    12    26    27    1
    13    27    28    1
    14    28    29    1
    15    29    30    1
    16     3     4   ar
    17     4     5   ar
    18     5     6   ar
    19     6     7    1
    20     7     8   am
    21     7     9    2
    22    17    18   ar
    23    18    19   ar
    24    19    20   ar
    25    20    21    1
    26    20    15   ar
    27     6     1   ar
    28    29    24    1
    29    12    13    1
    30    22    23    1
    31    30    31    1
    32    30    32    1
    33     8    10    1
    34     8    11    1
@<TRIPOS>MOLECULE
*****
 32 34 0 0 0
SMALL
GASTEIGER

@<TRIPOS>ATOM
      1 C         141.8397  140.1508  167.5777 C.ar    1  UNL1        0.0764
      2 C         140.6541  139.8154  166.7222 C.ar    1  UNL1        0.0522
      3 C         139.3067  139.6192  167.3514 C.ar    1  UNL1        0.1515
      4 N         139.1449  139.7584  168.8362 N.ar    1  UNL1       -0.1329
      5 N         140.3305  140.0938  169.6917 N.ar    1  UNL1       -0.1409
      6 C         141.6779  140.2900  169.0624 C.ar    1  UNL1        0.1691
      7 C         142.8635  140.6254  169.9179 C.2     1  UNL1        0.2635
      8 N         143.2717  139.7037  171.0287 N.am    1  UNL1       -0.3240
      9 O         143.6409  141.8826  169.6627 O.2     1  UNL1       -0.2686
     10 H         142.7614  138.8786  171.1962 H       1  UNL1        0.1453
     11 H         144.0498  139.9238  171.5902 H       1  UNL1        0.1453
     12 N         143.1872  140.3470  166.9485 N.pl3   1  UNL1       -0.2965
     13 H         143.9557  139.8131  167.2542 H       1  UNL1        0.1537
     14 C         145.3968  141.7919  162.4730 C.3     1  UNL1        0.0530
     15 C         144.4684  142.0792  163.6156 C.ar    1  UNL1        0.0713
     16 N         144.2920  141.0695  164.7107 N.ar    1  UNL1       -0.2341
     17 C         143.3636  141.3568  165.8533 C.ar    1  UNL1        0.1318
     18 C         142.6117  142.6539  165.9008 C.ar    1  UNL1        0.0353
     19 C         142.7882  143.6636  164.8057 C.ar    1  UNL1        0.0155
     20 C         143.7165  143.3762  163.6631 C.ar    1  UNL1        0.0713
     21 CL        143.8930  144.3860  162.5680 Cl      1  UNL1       -0.0810
     22 N         138.1211  139.2838  166.4960 N.pl3   1  UNL1       -0.3170
     23 H         137.2311  139.1849  166.9050 H       1  UNL1        0.1482
     24 C         138.2916  139.0991  165.0172 C.3     1  UNL1        0.0845
     25 C         138.7463  137.7769  164.4740 C.3     1  UNL1        0.0209
     26 C         138.9168  137.5922  162.9951 C.3     1  UNL1        0.0018
     27 C         138.6324  138.7297  162.0596 C.3     1  UNL1        0.0015
     28 C         138.1777  140.0518  162.6028 C.3     1  UNL1        0.0172
     29 C         138.0072  140.2366  164.0815 C.3     1  UNL1        0.0689
     30 N         137.5524  141.5587  164.6247 N.3     1  UNL1       -0.3209
     31 H         137.4915  141.5057  165.6415 H       1  UNL1        0.1189
     32 H         136.6355  141.7869  164.2406 H       1  UNL1        0.1189
@<TRIPOS>BOND
     1    14    15    1
     2    15    16   ar
     3    16    17   ar
     4    17    12    1
     5    12     1    1
     6     1     2   ar
     7     2     3   ar
     8     3    22    1
     9    24    22    1
    10    24    25    1
    11    25    26    1
    12    26    27    1
    13    27    28    1
    14    28    29    1
    15    29    30    1
    16     3     4   ar
    17     4     5   ar
    18     5     6   ar
    19     6     7    1
    20     7     8   am
    21     7     9    2
    22    17    18   ar
    23    18    19   ar
    24    19    20   ar
    25    20    21    1
    26    20    15   ar
    27     6     1   ar
    28    29    24    1
    29    12    13    1
    30    22    23    1
    31    30    31    1
    32    30    32    1
    33     8    10    1
    34     8    11    1
@<TRIPOS>MOLECULE
*****
 32 34 0 0 0
SMALL
GASTEIGER

@<TRIPOS>ATOM
      1 C         140.1693  139.6710  165.2072 C.ar    1  UNL1        0.0764
      2 C         140.5031  139.9300  166.6465 C.ar    1  UNL1        0.0522
      3 C         139.5100  139.5933  167.7191 C.ar    1  UNL1        0.1515
      4 N         138.1831  138.9975  167.3523 N.ar    1  UNL1       -0.1329
      5 N         137.8493  138.7385  165.9131 N.ar    1  UNL1       -0.1409
      6 C         138.8424  139.0752  164.8405 C.ar    1  UNL1        0.1691
      7 C         138.5086  138.8162  163.4012 C.2     1  UNL1        0.2635
      8 N         137.5660  139.7286  162.6740 N.am    1  UNL1       -0.3240
      9 O         139.1175  137.6447  162.6892 O.2     1  UNL1       -0.2686
     10 H         137.1663  140.4975  163.1413 H       1  UNL1        0.1453
     11 H         137.3469  139.5586  161.7293 H       1  UNL1        0.1453
     12 N         141.1624  140.0077  164.1347 N.pl3   1  UNL1       -0.2965
     13 H         141.3619  139.3543  163.4259 H       1  UNL1        0.1537
     14 C         141.0543  145.1344  163.2949 C.3     1  UNL1        0.0530
     15 C         141.7973  143.9035  163.7222 C.ar    1  UNL1        0.0713
     16 N         141.1084  142.5711  163.7148 N.ar    1  UNL1       -0.2341
     17 C         141.8514  141.3401  164.1421 C.ar    1  UNL1        0.1318
     18 C         143.2834  141.4415  164.5768 C.ar    1  UNL1        0.0353
     19 C         143.9724  142.7739  164.5842 C.ar    1  UNL1        0.0155
     20 C         143.2293  144.0049  164.1569 C.ar    1  UNL1        0.0713
     21 CL        143.9184  145.3373  164.1644 Cl      1  UNL1       -0.0810
     22 N         139.8437  139.8523  169.1583 N.pl3   1  UNL1       -0.3170
     23 H         139.3831  139.3498  169.8686 H       1  UNL1        0.1482
     24 C         140.8793  140.8769  169.5154 C.3     1  UNL1        0.0845
     25 C         140.4866  142.3156  169.6767 C.3     1  UNL1        0.0209
     26 C         141.5223  143.3403  170.0337 C.3     1  UNL1        0.0018
     27 C         142.9507  142.9263  170.2295 C.3     1  UNL1        0.0015
     28 C         143.3434  141.4876  170.0682 C.3     1  UNL1        0.0172
     29 C         142.3078  140.4630  169.7112 C.3     1  UNL1        0.0689
     30 N         142.7005  139.0243  169.5499 N.3     1  UNL1       -0.3209
     31 H         141.8775  138.4722  169.3087 H       1  UNL1        0.1189
     32 H         143.0966  138.6799  170.4245 H       1  UNL1        0.1189
@<TRIPOS>BOND
     1    14    15    1
     2    15    16   ar
     3    16    17   ar
     4    17    12    1
     5    12     1    1
     6     1     2   ar
     7     2     3   ar
     8     3    22    1
     9    24    22    1
    10    24    25    1
    11    25    26    1
    12    26    27    1
    13    27    28    1
    14    28    29    1
    15    29    30    1
    16     3     4   ar
    17     4     5   ar
    18     5     6   ar
    19     6     7    1
    20     7     8   am
    21     7     9    2
    22    17    18   ar
    23    18    19   ar
    24    19    20   ar
    25    20    21    1
    26    20    15   ar
    27     6     1   ar
    28    29    24    1
    29    12    13    1
    30    22    23    1
    31    30    31    1
    32    30    32    1
    33     8    10    1
    34     8    11    1
@<TRIPOS>MOLECULE
*****
 32 34 0 0 0
SMALL
GASTEIGER

@<TRIPOS>ATOM
      1 C         140.7463  140.0182  167.3646 C.ar    1  UNL1        0.0764
      2 C         141.6450  139.5123  166.2753 C.ar    1  UNL1        0.0522
      3 C         142.9579  138.8749  166.6218 C.ar    1  UNL1        0.1515
      4 N         143.3721  138.7436  168.0576 N.ar    1  UNL1       -0.1329
      5 N         142.4734  139.2496  169.1467 N.ar    1  UNL1       -0.1409
      6 C         141.1605  139.8869  168.8002 C.ar    1  UNL1        0.1691
      7 C         140.2618  140.3929  169.8895 C.2     1  UNL1        0.2635
      8 N         139.9587  139.5256  171.0751 N.am    1  UNL1       -0.3240
      9 O         139.6663  141.7662  169.7930 O.2     1  UNL1       -0.2686
     10 H         140.3495  138.6242  171.1384 H       1  UNL1        0.1453
     11 H         139.3688  139.8577  171.7900 H       1  UNL1        0.1453
     12 N         139.4334  140.6556  167.0181 N.pl3   1  UNL1       -0.2965
     13 H         138.6134  140.3810  167.4889 H       1  UNL1        0.1537
     14 C         137.7362  142.2754  162.3817 C.3     1  UNL1        0.0530
     15 C         138.5211  142.5211  163.6361 C.ar    1  UNL1        0.0713
     16 N         138.5848  141.4655  164.6999 N.ar    1  UNL1       -0.2341
     17 C         139.3697  141.7113  165.9543 C.ar    1  UNL1        0.1318
     18 C         140.0909  143.0126  166.1449 C.ar    1  UNL1        0.0353
     19 C         140.0272  144.0681  165.0812 C.ar    1  UNL1        0.0155
     20 C         139.2423  143.8224  163.8268 C.ar    1  UNL1        0.0713
     21 CL        139.1786  144.8781  162.7630 Cl      1  UNL1       -0.0810
     22 N         143.8566  138.3689  165.5327 N.pl3   1  UNL1       -0.3170
     23 H         144.2948  137.4921  165.6237 H       1  UNL1        0.1482
     24 C         144.0875  139.1990  164.3048 C.3     1  UNL1        0.0845
     25 C         145.0315  140.3637  164.3535 C.3     1  UNL1        0.0209
     26 C         145.2625  141.1937  163.1255 C.3     1  UNL1        0.0018
     27 C         144.5494  140.8590  161.8490 C.3     1  UNL1        0.0015
     28 C         143.6054  139.6943  161.8004 C.3     1  UNL1        0.0172
     29 C         143.3745  138.8643  163.0282 C.3     1  UNL1        0.0689
     30 N         142.4305  137.6996  162.9796 N.3     1  UNL1       -0.3209
     31 H         142.3950  137.2523  163.8955 H       1  UNL1        0.1189
     32 H         142.7558  137.0271  162.2851 H       1  UNL1        0.1189
@<TRIPOS>BOND
     1    14    15    1
     2    15    16   ar
     3    16    17   ar
     4    17    12    1
     5    12     1    1
     6     1     2   ar
     7     2     3   ar
     8     3    22    1
     9    24    22    1
    10    24    25    1
    11    25    26    1
    12    26    27    1
    13    27    28    1
    14    28    29    1
    15    29    30    1
    16     3     4   ar
    17     4     5   ar
    18     5     6   ar
    19     6     7    1
    20     7     8   am
    21     7     9    2
    22    17    18   ar
    23    18    19   ar
    24    19    20   ar
    25    20    21    1
    26    20    15   ar
    27     6     1   ar
    28    29    24    1
    29    12    13    1
    30    22    23    1
    31    30    31    1
    32    30    32    1
    33     8    10    1
    34     8    11    1
@<TRIPOS>MOLECULE
*****
 32 34 0 0 0
SMALL
GASTEIGER

@<TRIPOS>ATOM
      1 C         143.7143  141.3715  165.3665 C.ar    1  UNL1        0.0764
      2 C         143.0306  141.0020  166.6496 C.ar    1  UNL1        0.0522
      3 C         142.8789  139.5590  167.0300 C.ar    1  UNL1        0.1515
      4 N         143.4109  138.4855  166.1273 N.ar    1  UNL1       -0.1329
      5 N         144.0945  138.8550  164.8443 N.ar    1  UNL1       -0.1409
      6 C         144.2462  140.2980  164.4639 C.ar    1  UNL1        0.1691
      7 C         144.9298  140.6675  163.1808 C.2     1  UNL1        0.2635
      8 N         144.5552  139.9740  161.9047 N.am    1  UNL1       -0.3240
      9 O         145.9880  141.7306  163.1740 O.2     1  UNL1       -0.2686
     10 H         143.8606  139.2763  161.9092 H       1  UNL1        0.1453
     11 H         145.0039  140.2165  161.0626 H       1  UNL1        0.1453
     12 N         143.8659  142.8145  164.9861 N.pl3   1  UNL1       -0.2965
     13 H         144.6966  143.2961  165.2033 H       1  UNL1        0.1537
     14 C         139.0239  144.6998  164.9596 C.3     1  UNL1        0.0530
     15 C         140.3309  144.4663  164.2615 C.ar    1  UNL1        0.0713
     16 N         141.4449  143.7572  164.9728 N.ar    1  UNL1       -0.2341
     17 C         142.7519  143.5237  164.2747 C.ar    1  UNL1        0.1318
     18 C         142.9448  143.9994  162.8653 C.ar    1  UNL1        0.0353
     19 C         141.8308  144.7085  162.1540 C.ar    1  UNL1        0.0155
     20 C         140.5238  144.9420  162.8521 C.ar    1  UNL1        0.0713
     21 CL        139.4098  145.6512  162.1407 Cl      1  UNL1       -0.0810
     22 N         142.1954  139.1894  168.3130 N.pl3   1  UNL1       -0.3170
     23 H         142.1601  138.2479  168.5985 H       1  UNL1        0.1482
     24 C         141.5655  140.2544  169.1609 C.3     1  UNL1        0.0845
     25 C         140.1900  140.7563  168.8355 C.3     1  UNL1        0.0209
     26 C         139.5601  141.8213  169.6836 C.3     1  UNL1        0.0018
     27 C         140.3058  142.3844  170.8569 C.3     1  UNL1        0.0015
     28 C         141.6814  141.8825  171.1823 C.3     1  UNL1        0.0172
     29 C         142.3113  140.8175  170.3344 C.3     1  UNL1        0.0689
     30 N         143.6868  140.3156  170.6597 N.3     1  UNL1       -0.3209
     31 H         143.9557  139.5992  169.9853 H       1  UNL1        0.1189
     32 H         143.6900  139.9170  171.5986 H       1  UNL1        0.1189
@<TRIPOS>BOND
     1    14    15    1
     2    15    16   ar
     3    16    17   ar
     4    17    12    1
     5    12     1    1
     6     1     2   ar
     7     2     3   ar
     8     3    22    1
     9    24    22    1
    10    24    25    1
    11    25    26    1
    12    26    27    1
    13    27    28    1
    14    28    29    1
    15    29    30    1
    16     3     4   ar
    17     4     5   ar
    18     5     6   ar
    19     6     7    1
    20     7     8   am
    21     7     9    2
    22    17    18   ar
    23    18    19   ar
    24    19    20   ar
    25    20    21    1
    26    20    15   ar
    27     6     1   ar
    28    29    24    1
    29    12    13    1
    30    22    23    1
    31    30    31    1
    32    30    32    1
    33     8    10    1
    34     8    11    1
@<TRIPOS>MOLECULE
*****
 32 34 0 0 0
SMALL
GASTEIGER

@<TRIPOS>ATOM
      1 C         140.6805  144.1988  160.5477 C.ar    1  UNL1        0.0764
      2 C         139.8276  143.3267  161.4207 C.ar    1  UNL1        0.0522
      3 C         138.6088  142.6611  160.8536 C.ar    1  UNL1        0.1515
      4 N         138.2430  142.8676  159.4136 N.ar    1  UNL1       -0.1329
      5 N         139.0959  143.7397  158.5407 N.ar    1  UNL1       -0.1409
      6 C         140.3147  144.4053  159.1078 C.ar    1  UNL1        0.1691
      7 C         141.1677  145.2774  158.2348 C.2     1  UNL1        0.2635
      8 N         140.5357  146.3571  157.4072 N.am    1  UNL1       -0.3240
      9 O         142.6525  145.0697  158.1895 O.2     1  UNL1       -0.2686
     10 H         139.5612  146.4934  157.4370 H       1  UNL1        0.1453
     11 H         141.0955  146.9294  156.8343 H       1  UNL1        0.1453
     12 N         141.8993  144.8644  161.1148 N.pl3   1  UNL1       -0.2965
     13 H         142.0090  145.8397  161.0365 H       1  UNL1        0.1537
     14 C         144.4980  143.5743  165.4255 C.3     1  UNL1        0.0530
     15 C         144.2503  143.3991  163.9565 C.ar    1  UNL1        0.0713
     16 N         143.1987  144.2193  163.2701 N.ar    1  UNL1       -0.2341
     17 C         142.9510  144.0441  161.8011 C.ar    1  UNL1        0.1318
     18 C         143.7550  143.0486  161.0185 C.ar    1  UNL1        0.0353
     19 C         144.8067  142.2284  161.7049 C.ar    1  UNL1        0.0155
     20 C         145.0543  142.4036  163.1739 C.ar    1  UNL1        0.0713
     21 CL        146.1060  141.5832  163.8603 Cl      1  UNL1       -0.0810
     22 N         137.7559  141.7891  161.7265 N.pl3   1  UNL1       -0.3170
     23 H         136.8807  142.1127  162.0405 H       1  UNL1        0.1482
     24 C         138.2363  140.4240  162.1209 C.3     1  UNL1        0.0845
     25 C         138.7246  139.4688  161.0724 C.3     1  UNL1        0.0209
     26 C         139.2051  138.1036  161.4669 C.3     1  UNL1        0.0018
     27 C         139.1973  137.6937  162.9097 C.3     1  UNL1        0.0015
     28 C         138.7090  138.6488  163.9581 C.3     1  UNL1        0.0172
     29 C         138.2285  140.0139  163.5638 C.3     1  UNL1        0.0689
     30 N         137.7402  140.9691  164.6122 N.3     1  UNL1       -0.3209
     31 H         137.4546  141.8426  164.1698 H       1  UNL1        0.1189
     32 H         138.4897  141.1547  165.2787 H       1  UNL1        0.1189
@<TRIPOS>BOND
     1    14    15    1
     2    15    16   ar
     3    16    17   ar
     4    17    12    1
     5    12     1    1
     6     1     2   ar
     7     2     3   ar
     8     3    22    1
     9    24    22    1
    10    24    25    1
    11    25    26    1
    12    26    27    1
    13    27    28    1
    14    28    29    1
    15    29    30    1
    16     3     4   ar
    17     4     5   ar
    18     5     6   ar
    19     6     7    1
    20     7     8   am
    21     7     9    2
    22    17    18   ar
    23    18    19   ar
    24    19    20   ar
    25    20    21    1
    26    20    15   ar
    27     6     1   ar
    28    29    24    1
    29    12    13    1
    30    22    23    1
    31    30    31    1
    32    30    32    1
    33     8    10    1
    34     8    11    1
