@<TRIPOS>MOLECULE
*****
 44 46 0 0 0
SMALL
GASTEIGER

@<TRIPOS>ATOM
      1 C         141.6626  142.1294  165.1708 C.3     1  UNL1        0.0847
      2 C         138.9538  143.3638  162.5462 C.ar    1  UNL1        0.1653
      3 C         140.1127  142.6233  163.1450 C.ar    1  UNL1        0.0365
      4 C         140.5037  142.8699  164.5719 C.ar    1  UNL1       -0.0022
      5 C         139.7359  143.8572  165.4001 C.ar    1  UNL1       -0.0002
      6 C         138.5770  144.5977  164.8013 C.ar    1  UNL1        0.0325
      7 C         138.1860  144.3510  163.3744 C.ar    1  UNL1        0.1738
      8 F         137.0271  145.0916  162.7755 F       1  UNL1       -0.2010
      9 O         138.5627  143.1172  161.1192 O.3     1  UNL1       -0.4769
     10 C         138.9822  141.3359  159.2750 C.3     1  UNL1        0.0472
     11 C         138.4187  141.7125  160.6131 C.3     1  UNL1        0.1662
     12 C         137.7110  140.6844  161.4452 C.3     1  UNL1        0.0472
     13 C         140.8826  140.8502  165.0987 C.ar    1  UNL1       -0.0001
     14 C         139.6602  140.6683  165.9489 C.ar    1  UNL1        0.0271
     15 C         138.8801  139.3891  165.8768 C.ar    1  UNL1        0.1429
     16 F         137.6469  138.8806  166.5628 F       1  UNL1       -0.2041
     17 C         139.3224  138.2919  164.9546 C.ar    1  UNL1        0.0667
     18 C         140.5447  138.4738  164.1044 C.ar    1  UNL1        0.1461
     19 C         141.3248  139.7530  164.1765 C.ar    1  UNL1        0.0345
     20 O         140.9870  137.3765  163.1822 O.3     1  UNL1       -0.4263
     21 C         141.6644  137.7130  161.8869 C.3     1  UNL1        0.4723
     22 F         140.3276  137.8155  161.2144 F       1  UNL1       -0.1579
     23 F         143.0013  137.6104  162.5595 F       1  UNL1       -0.1579
     24 C         142.3419  138.0494  160.5916 C.3     1  UNL1        0.4202
     25 F         141.5454  138.1089  159.3220 F       1  UNL1       -0.1876
     26 F         143.8159  138.3263  160.5659 F       1  UNL1       -0.1876
     27 N         142.4427  143.4085  165.2428 N.3     1  UNL1       -0.2909
     28 H         142.5220  143.6498  166.2307 H       1  UNL1        0.1238
     29 C         143.8266  143.4764  164.6681 C.3     1  UNL1        0.0989
     30 C         144.0242  143.8600  163.2315 C.3     1  UNL1        0.1347
     31 O         143.6227  145.2254  162.7578 O.3     1  UNL1       -0.3827
     32 H         143.8165  145.3091  161.8110 H       1  UNL1        0.2104
     33 C         144.6232  142.8781  162.2686 C.3     1  UNL1        0.1339
     34 C         144.8311  141.4518  162.6840 C.3     1  UNL1        0.4002
     35 F         145.0390  140.0256  163.0993 F       1  UNL1       -0.1700
     36 F         146.2053  141.7957  163.1771 F       1  UNL1       -0.1700
     37 F         143.4568  141.1079  162.1908 F       1  UNL1       -0.1700
     38 C         142.8215  141.3889  165.7696 C.3     1  UNL1        0.0492
     39 C         142.8421  141.0905  167.2395 C.ar    1  UNL1       -0.0202
     40 C         143.0970  142.1922  168.2250 C.ar    1  UNL1       -0.0042
     41 C         143.1176  141.8937  169.6948 C.ar    1  UNL1       -0.0003
     42 C         142.8832  140.4936  170.1792 C.ar    1  UNL1       -0.0000
     43 C         142.6282  139.3919  169.1937 C.ar    1  UNL1       -0.0003
     44 C         142.6077  139.6903  167.7239 C.ar    1  UNL1       -0.0042
@<TRIPOS>BOND
     1    10    11    1
     2    11    12    1
     3    11     9    1
     4     9     2    1
     5     2     3   ar
     6     3     4   ar
     7     4     1    1
     8     1    38    1
     9    38    39    1
    10    39    40   ar
    11    40    41   ar
    12    41    42   ar
    13    42    43   ar
    14    43    44   ar
    15     1    27    1
    16    27    29    1
    17    29    30    1
    18    30    31    1
    19    30    33    1
    20    33    34    1
    21    34    35    1
    22    34    36    1
    23    34    37    1
    24     1    13    1
    25    13    14   ar
    26    14    15   ar
    27    15    16    1
    28    15    17   ar
    29    17    18   ar
    30    18    20    1
    31    20    21    1
    32    21    22    1
    33    21    23    1
    34    21    24    1
    35    24    25    1
    36    24    26    1
    37    18    19   ar
    38     4     5   ar
    39     5     6   ar
    40     6     7   ar
    41     7     8    1
    42     7     2   ar
    43    44    39   ar
    44    19    13   ar
    45    27    28    1
    46    31    32    1
@<TRIPOS>MOLECULE
*****
 44 46 0 0 0
SMALL
GASTEIGER

@<TRIPOS>ATOM
      1 C         141.7521  141.1697  165.2948 C.3     1  UNL1        0.0847
      2 C         142.8250  143.9278  162.6506 C.ar    1  UNL1        0.1653
      3 C         142.0910  142.7862  163.2892 C.ar    1  UNL1        0.0365
      4 C         142.4861  142.3114  164.6561 C.ar    1  UNL1       -0.0022
      5 C         143.6152  142.9783  165.3844 C.ar    1  UNL1       -0.0002
      6 C         144.3492  144.1199  164.7458 C.ar    1  UNL1        0.0325
      7 C         143.9541  144.5947  163.3789 C.ar    1  UNL1        0.1738
      8 F         144.6881  145.7364  162.7402 F       1  UNL1       -0.2010
      9 O         142.4299  144.4026  161.2836 O.3     1  UNL1       -0.4769
     10 C         140.3058  144.3104  159.7906 C.3     1  UNL1        0.0472
     11 C         141.0132  144.8147  161.0133 C.3     1  UNL1        0.1662
     12 C         140.3040  145.7313  161.9657 C.3     1  UNL1        0.0472
     13 C         140.4475  141.8629  165.0348 C.ar    1  UNL1       -0.0001
     14 C         140.1444  143.1683  165.7088 C.ar    1  UNL1        0.0271
     15 C         138.8398  143.8615  165.4487 C.ar    1  UNL1        0.1429
     16 F         138.2237  145.1393  165.9358 F       1  UNL1       -0.2041
     17 C         137.8384  143.2493  164.5147 C.ar    1  UNL1        0.0667
     18 C         138.1415  141.9440  163.8408 C.ar    1  UNL1        0.1461
     19 C         139.4460  141.2508  164.1008 C.ar    1  UNL1        0.0345
     20 O         137.1400  141.3319  162.9067 O.3     1  UNL1       -0.4263
     21 C         137.5979  140.6971  161.6272 C.3     1  UNL1        0.4723
     22 F         137.8420  142.0558  161.0405 F       1  UNL1       -0.1579
     23 F         137.3539  139.3383  162.2140 F       1  UNL1       -0.1579
     24 C         138.0559  140.0623  160.3476 C.3     1  UNL1        0.4202
     25 F         138.7249  138.7200  160.3738 F       1  UNL1       -0.1876
     26 F         137.8449  140.7699  159.0419 F       1  UNL1       -0.1876
     27 N         143.0566  140.4765  165.5548 N.3     1  UNL1       -0.2909
     28 H         143.1375  140.3710  166.5661 H       1  UNL1        0.1238
     29 C         143.3211  139.1269  164.9560 C.3     1  UNL1        0.0989
     30 C         143.6247  139.0022  163.4924 C.3     1  UNL1        0.1347
     31 O         144.8024  139.7232  162.9066 O.3     1  UNL1       -0.3827
     32 H         144.8554  139.5370  161.9561 H       1  UNL1        0.2104
     33 C         142.7505  138.1564  162.6145 C.3     1  UNL1        0.1339
     34 C         141.2693  138.1154  162.8474 C.3     1  UNL1        0.4002
     35 F         139.7881  138.0745  163.0803 F       1  UNL1       -0.1700
     36 F         141.4214  136.8192  163.5868 F       1  UNL1       -0.1700
     37 F         141.1172  139.4117  162.1080 F       1  UNL1       -0.1700
     38 C         141.0181  140.0281  165.9335 C.3     1  UNL1        0.0492
     39 C         140.8047  140.0104  167.4182 C.ar    1  UNL1       -0.0202
     40 C         141.9578  139.7392  168.3384 C.ar    1  UNL1       -0.0042
     41 C         141.7444  139.7215  169.8230 C.ar    1  UNL1       -0.0003
     42 C         140.3779  139.9750  170.3874 C.ar    1  UNL1       -0.0000
     43 C         139.2249  140.2462  169.4672 C.ar    1  UNL1       -0.0003
     44 C         139.4383  140.2639  167.9826 C.ar    1  UNL1       -0.0042
@<TRIPOS>BOND
     1    10    11    1
     2    11    12    1
     3    11     9    1
     4     9     2    1
     5     2     3   ar
     6     3     4   ar
     7     4     1    1
     8     1    38    1
     9    38    39    1
    10    39    40   ar
    11    40    41   ar
    12    41    42   ar
    13    42    43   ar
    14    43    44   ar
    15     1    27    1
    16    27    29    1
    17    29    30    1
    18    30    31    1
    19    30    33    1
    20    33    34    1
    21    34    35    1
    22    34    36    1
    23    34    37    1
    24     1    13    1
    25    13    14   ar
    26    14    15   ar
    27    15    16    1
    28    15    17   ar
    29    17    18   ar
    30    18    20    1
    31    20    21    1
    32    21    22    1
    33    21    23    1
    34    21    24    1
    35    24    25    1
    36    24    26    1
    37    18    19   ar
    38     4     5   ar
    39     5     6   ar
    40     6     7   ar
    41     7     8    1
    42     7     2   ar
    43    44    39   ar
    44    19    13   ar
    45    27    28    1
    46    31    32    1
@<TRIPOS>MOLECULE
*****
 44 46 0 0 0
SMALL
GASTEIGER

@<TRIPOS>ATOM
      1 C         140.3638  141.2200  165.1666 C.3     1  UNL1        0.0847
      2 C         139.9451  143.8528  162.2267 C.ar    1  UNL1        0.1653
      3 C         140.2610  142.5804  162.9555 C.ar    1  UNL1        0.0365
      4 C         140.0479  142.4924  164.4376 C.ar    1  UNL1       -0.0022
      5 C         139.5190  143.6768  165.1910 C.ar    1  UNL1       -0.0002
      6 C         139.2032  144.9492  164.4621 C.ar    1  UNL1        0.0325
      7 C         139.4162  145.0371  162.9800 C.ar    1  UNL1        0.1738
      8 F         139.1003  146.3096  162.2510 F       1  UNL1       -0.2010
      9 O         140.1582  143.9408  160.7444 O.3     1  UNL1       -0.4769
     10 C         141.1174  141.9902  159.3214 C.3     1  UNL1        0.0472
     11 C         139.9410  142.7326  159.8824 C.3     1  UNL1        0.1662
     12 C         138.5472  142.2667  159.5815 C.3     1  UNL1        0.0472
     13 C         141.8253  141.4323  164.9039 C.ar    1  UNL1       -0.0001
     14 C         142.5544  142.5531  165.5837 C.ar    1  UNL1        0.0271
     15 C         144.0159  142.7654  165.3210 C.ar    1  UNL1        0.1429
     16 F         145.0298  143.7556  165.8122 F       1  UNL1       -0.2041
     17 C         144.7483  141.8568  164.3786 C.ar    1  UNL1        0.0667
     18 C         144.0191  140.7359  163.6989 C.ar    1  UNL1        0.1461
     19 C         142.5577  140.5237  163.9615 C.ar    1  UNL1        0.0345
     20 O         144.7516  139.8273  162.7564 O.3     1  UNL1       -0.4263
     21 C         144.0639  139.3084  161.5285 C.3     1  UNL1        0.4723
     22 F         143.9901  137.9437  162.1466 F       1  UNL1       -0.1579
     23 F         144.1377  140.6732  160.9105 F       1  UNL1       -0.1579
     24 C         143.3762  138.7895  160.3006 C.3     1  UNL1        0.4202
     25 F         142.4211  137.6377  160.4061 F       1  UNL1       -0.1876
     26 F         143.6437  139.4224  158.9672 F       1  UNL1       -0.1876
     27 N         138.9023  141.0077  165.4292 N.3     1  UNL1       -0.2909
     28 H         138.4291  141.8761  165.1795 H       1  UNL1        0.1238
     29 C         138.1686  139.8993  164.7340 C.3     1  UNL1        0.0989
     30 C         137.7144  140.0748  163.3153 C.3     1  UNL1        0.1347
     31 O         136.7559  141.1742  162.9652 O.3     1  UNL1       -0.3827
     32 H         136.5669  141.1478  162.0141 H       1  UNL1        0.2104
     33 C         138.2187  139.1509  162.2465 C.3     1  UNL1        0.1339
     34 C         139.4318  138.3051  162.4974 C.3     1  UNL1        0.4002
     35 F         140.6449  137.4594  162.7484 F       1  UNL1       -0.1700
     36 F         138.5574  137.2090  163.0302 F       1  UNL1       -0.1700
     37 F         140.3063  139.4013  161.9647 F       1  UNL1       -0.1700
     38 C         140.6796  139.9476  165.8954 C.3     1  UNL1        0.0492
     39 C         140.8790  139.9645  167.3821 C.ar    1  UNL1       -0.0202
     40 C         142.2262  139.6502  167.9618 C.ar    1  UNL1       -0.0042
     41 C         142.4255  139.6672  169.4483 C.ar    1  UNL1       -0.0003
     42 C         141.2776  139.9984  170.3552 C.ar    1  UNL1       -0.0000
     43 C         139.9303  140.3127  169.7756 C.ar    1  UNL1       -0.0003
     44 C         139.7310  140.2958  168.2890 C.ar    1  UNL1       -0.0042
@<TRIPOS>BOND
     1    10    11    1
     2    11    12    1
     3    11     9    1
     4     9     2    1
     5     2     3   ar
     6     3     4   ar
     7     4     1    1
     8     1    38    1
     9    38    39    1
    10    39    40   ar
    11    40    41   ar
    12    41    42   ar
    13    42    43   ar
    14    43    44   ar
    15     1    27    1
    16    27    29    1
    17    29    30    1
    18    30    31    1
    19    30    33    1
    20    33    34    1
    21    34    35    1
    22    34    36    1
    23    34    37    1
    24     1    13    1
    25    13    14   ar
    26    14    15   ar
    27    15    16    1
    28    15    17   ar
    29    17    18   ar
    30    18    20    1
    31    20    21    1
    32    21    22    1
    33    21    23    1
    34    21    24    1
    35    24    25    1
    36    24    26    1
    37    18    19   ar
    38     4     5   ar
    39     5     6   ar
    40     6     7   ar
    41     7     8    1
    42     7     2   ar
    43    44    39   ar
    44    19    13   ar
    45    27    28    1
    46    31    32    1
@<TRIPOS>MOLECULE
*****
 44 46 0 0 0
SMALL
GASTEIGER

@<TRIPOS>ATOM
      1 C         141.3167  141.4187  166.0778 C.3     1  UNL1        0.0847
      2 C         144.0720  141.4297  163.2216 C.ar    1  UNL1        0.1653
      3 C         143.0724  140.9354  164.2247 C.ar    1  UNL1        0.0365
      4 C         142.3164  141.9131  165.0746 C.ar    1  UNL1       -0.0022
      5 C         142.5601  143.3852  164.9216 C.ar    1  UNL1       -0.0002
      6 C         143.5598  143.8796  163.9185 C.ar    1  UNL1        0.0325
      7 C         144.3157  142.9019  163.0685 C.ar    1  UNL1        0.1738
      8 F         145.3155  143.3963  162.0654 F       1  UNL1       -0.2010
      9 O         144.8281  140.4520  162.3716 O.3     1  UNL1       -0.4769
     10 C         143.8929  138.1801  161.5266 C.3     1  UNL1        0.0472
     11 C         144.1072  139.6514  161.3279 C.3     1  UNL1        0.1662
     12 C         143.6005  140.3220  160.0854 C.3     1  UNL1        0.0472
     13 C         140.2820  142.3381  165.4998 C.ar    1  UNL1       -0.0001
     14 C         139.7865  143.5067  166.2991 C.ar    1  UNL1        0.0271
     15 C         138.7518  144.4261  165.7210 C.ar    1  UNL1        0.1429
     16 F         138.0512  145.6536  166.2234 F       1  UNL1       -0.2041
     17 C         138.2125  144.1768  164.3437 C.ar    1  UNL1        0.0667
     18 C         138.7080  143.0082  163.5444 C.ar    1  UNL1        0.1461
     19 C         139.7427  142.0889  164.1224 C.ar    1  UNL1        0.0345
     20 O         138.1687  142.7590  162.1670 O.3     1  UNL1       -0.4263
     21 C         137.8492  141.3606  161.7283 C.3     1  UNL1        0.4723
     22 F         136.8557  141.2372  162.8453 F       1  UNL1       -0.1579
     23 F         138.8428  141.4841  160.6113 F       1  UNL1       -0.1579
     24 C         137.5298  139.9623  161.2896 C.3     1  UNL1        0.4202
     25 F         136.9220  139.7201  159.9398 F       1  UNL1       -0.1876
     26 F         137.8181  138.8060  162.2007 F       1  UNL1       -0.1876
     27 N         142.3513  140.4993  166.6558 N.3     1  UNL1       -0.2909
     28 H         143.2281  140.7044  166.1766 H       1  UNL1        0.1238
     29 C         142.6442  140.5300  168.1267 C.3     1  UNL1        0.0989
     30 C         142.9549  141.8325  168.8025 C.3     1  UNL1        0.1347
     31 O         143.8834  142.8134  168.1501 O.3     1  UNL1       -0.3827
     32 H         143.9754  143.5965  168.7149 H       1  UNL1        0.2104
     33 C         142.3369  142.1543  170.1309 C.3     1  UNL1        0.1339
     34 C         140.8622  142.4105  170.2298 C.3     1  UNL1        0.4002
     35 F         139.3876  142.6667  170.3286 F       1  UNL1       -0.1700
     36 F         141.0521  143.7519  169.5859 F       1  UNL1       -0.1700
     37 F         140.6723  141.0691  170.8737 F       1  UNL1       -0.1700
     38 C         140.3170  140.9243  167.0809 C.3     1  UNL1        0.0492
     39 C         139.4830  139.7155  166.7755 C.ar    1  UNL1       -0.0202
     40 C         139.8289  138.8415  165.6066 C.ar    1  UNL1       -0.0042
     41 C         138.9948  137.6327  165.3012 C.ar    1  UNL1       -0.0003
     42 C         137.8149  137.2980  166.1648 C.ar    1  UNL1       -0.0000
     43 C         137.4690  138.1720  167.3337 C.ar    1  UNL1       -0.0003
     44 C         138.3031  139.3808  167.6391 C.ar    1  UNL1       -0.0042
@<TRIPOS>BOND
     1    10    11    1
     2    11    12    1
     3    11     9    1
     4     9     2    1
     5     2     3   ar
     6     3     4   ar
     7     4     1    1
     8     1    38    1
     9    38    39    1
    10    39    40   ar
    11    40    41   ar
    12    41    42   ar
    13    42    43   ar
    14    43    44   ar
    15     1    27    1
    16    27    29    1
    17    29    30    1
    18    30    31    1
    19    30    33    1
    20    33    34    1
    21    34    35    1
    22    34    36    1
    23    34    37    1
    24     1    13    1
    25    13    14   ar
    26    14    15   ar
    27    15    16    1
    28    15    17   ar
    29    17    18   ar
    30    18    20    1
    31    20    21    1
    32    21    22    1
    33    21    23    1
    34    21    24    1
    35    24    25    1
    36    24    26    1
    37    18    19   ar
    38     4     5   ar
    39     5     6   ar
    40     6     7   ar
    41     7     8    1
    42     7     2   ar
    43    44    39   ar
    44    19    13   ar
    45    27    28    1
    46    31    32    1
@<TRIPOS>MOLECULE
*****
 44 46 0 0 0
SMALL
GASTEIGER

@<TRIPOS>ATOM
      1 C         140.9749  140.8295  164.7368 C.3     1  UNL1        0.0847
      2 C         139.2755  139.8300  168.1811 C.ar    1  UNL1        0.1653
      3 C         140.2488  140.4046  167.1949 C.ar    1  UNL1        0.0365
      4 C         140.0016  140.2549  165.7230 C.ar    1  UNL1       -0.0022
      5 C         138.7811  139.5307  165.2373 C.ar    1  UNL1       -0.0002
      6 C         137.8078  138.9561  166.2235 C.ar    1  UNL1        0.0325
      7 C         138.0550  139.1057  167.6953 C.ar    1  UNL1        0.1738
      8 F         137.0817  138.5311  168.6816 F       1  UNL1       -0.2010
      9 O         139.5227  139.9796  169.6530 O.3     1  UNL1       -0.4769
     10 C         141.8137  140.7788  170.5817 C.3     1  UNL1        0.0472
     11 C         140.4073  141.0813  170.1568 C.3     1  UNL1        0.1662
     12 C         139.8855  142.4854  170.2355 C.3     1  UNL1        0.0472
     13 C         139.9865  141.9018  164.3860 C.ar    1  UNL1       -0.0001
     14 C         139.6182  142.9435  165.4006 C.ar    1  UNL1        0.0271
     15 C         138.6297  144.0158  165.0497 C.ar    1  UNL1        0.1429
     16 F         138.0478  145.1806  165.7944 F       1  UNL1       -0.2041
     17 C         138.0095  144.0464  163.6843 C.ar    1  UNL1        0.0667
     18 C         138.3777  143.0048  162.6697 C.ar    1  UNL1        0.1461
     19 C         139.3662  141.9325  163.0205 C.ar    1  UNL1        0.0345
     20 O         137.7574  143.0355  161.3043 O.3     1  UNL1       -0.4263
     21 C         138.5111  142.4940  160.1258 C.3     1  UNL1        0.4723
     22 F         139.3021  143.7660  160.0472 F       1  UNL1       -0.1579
     23 F         137.7199  141.2219  160.2044 F       1  UNL1       -0.1579
     24 C         139.2647  141.9525  158.9474 C.3     1  UNL1        0.4202
     25 F         140.6580  141.4261  159.1256 F       1  UNL1       -0.1876
     26 F         138.6251  141.9374  157.5906 F       1  UNL1       -0.1876
     27 N         141.9633  139.7572  165.0876 N.3     1  UNL1       -0.2909
     28 H         141.5410  139.1987  165.8293 H       1  UNL1        0.1238
     29 C         142.4325  138.7963  164.0356 C.3     1  UNL1        0.0989
     30 C         141.5618  137.6440  163.6304 C.3     1  UNL1        0.1347
     31 O         141.3231  136.5122  164.5854 O.3     1  UNL1       -0.3827
     32 H         140.7427  135.8554  164.1698 H       1  UNL1        0.2104
     33 C         140.9297  137.6236  162.2702 C.3     1  UNL1        0.1339
     34 C         139.6087  138.2982  162.0468 C.3     1  UNL1        0.4002
     35 F         138.2878  138.9728  161.8234 F       1  UNL1       -0.1700
     36 F         140.2905  139.3681  161.2465 F       1  UNL1       -0.1700
     37 F         138.9269  137.2283  162.8472 F       1  UNL1       -0.1700
     38 C         141.9482  141.4040  163.7506 C.3     1  UNL1        0.0492
     39 C         142.7434  142.6252  164.1062 C.ar    1  UNL1       -0.0202
     40 C         143.7267  142.5767  165.2379 C.ar    1  UNL1       -0.0042
     41 C         144.5219  143.7979  165.5933 C.ar    1  UNL1       -0.0003
     42 C         144.3338  145.0675  164.8171 C.ar    1  UNL1       -0.0000
     43 C         143.3506  145.1161  163.6854 C.ar    1  UNL1       -0.0003
     44 C         142.5554  143.8949  163.3299 C.ar    1  UNL1       -0.0042
@<TRIPOS>BOND
     1    10    11    1
     2    11    12    1
     3    11     9    1
     4     9     2    1
     5     2     3   ar
     6     3     4   ar
     7     4     1    1
     8     1    38    1
     9    38    39    1
    10    39    40   ar
    11    40    41   ar
    12    41    42   ar
    13    42    43   ar
    14    43    44   ar
    15     1    27    1
    16    27    29    1
    17    29    30    1
    18    30    31    1
    19    30    33    1
    20    33    34    1
    21    34    35    1
    22    34    36    1
    23    34    37    1
    24     1    13    1
    25    13    14   ar
    26    14    15   ar
    27    15    16    1
    28    15    17   ar
    29    17    18   ar
    30    18    20    1
    31    20    21    1
    32    21    22    1
    33    21    23    1
    34    21    24    1
    35    24    25    1
    36    24    26    1
    37    18    19   ar
    38     4     5   ar
    39     5     6   ar
    40     6     7   ar
    41     7     8    1
    42     7     2   ar
    43    44    39   ar
    44    19    13   ar
    45    27    28    1
    46    31    32    1
@<TRIPOS>MOLECULE
*****
 44 46 0 0 0
SMALL
GASTEIGER

@<TRIPOS>ATOM
      1 C         141.1686  141.5608  166.0830 C.3     1  UNL1        0.0847
      2 C         139.4288  138.2019  164.8826 C.ar    1  UNL1        0.1653
      3 C         140.3390  139.3937  164.9143 C.ar    1  UNL1        0.0365
      4 C         140.2583  140.3690  166.0512 C.ar    1  UNL1       -0.0022
      5 C         139.2674  140.1524  167.1562 C.ar    1  UNL1       -0.0002
      6 C         138.3572  138.9606  167.1244 C.ar    1  UNL1        0.0325
      7 C         138.4379  137.9853  165.9876 C.ar    1  UNL1        0.1738
      8 F         137.5276  136.7935  165.9558 F       1  UNL1       -0.2010
      9 O         139.5095  137.2266  163.7457 O.3     1  UNL1       -0.4769
     10 C         139.1742  138.1442  161.3383 C.3     1  UNL1        0.0472
     11 C         140.0826  137.6567  162.4279 C.3     1  UNL1        0.1662
     12 C         141.5641  137.5993  162.1997 C.3     1  UNL1        0.0472
     13 C         140.0455  142.4314  165.6026 C.ar    1  UNL1       -0.0001
     14 C         139.6896  143.6795  166.3547 C.ar    1  UNL1        0.0271
     15 C         138.5664  144.5501  165.8743 C.ar    1  UNL1        0.1429
     16 F         137.9571  145.8299  166.3648 F       1  UNL1       -0.2041
     17 C         137.7993  144.1726  164.6419 C.ar    1  UNL1        0.0667
     18 C         138.1552  142.9245  163.8898 C.ar    1  UNL1        0.1461
     19 C         139.2783  142.0539  164.3701 C.ar    1  UNL1        0.0345
     20 O         137.3880  142.5470  162.6573 O.3     1  UNL1       -0.4263
     21 C         138.1202  142.1265  161.4175 C.3     1  UNL1        0.4723
     22 F         137.3584  140.8345  161.4059 F       1  UNL1       -0.1579
     23 F         138.8820  143.4187  161.4292 F       1  UNL1       -0.1579
     24 C         138.8523  141.7061  160.1777 C.3     1  UNL1        0.4202
     25 F         140.2742  141.2371  160.2691 F       1  UNL1       -0.1876
     26 F         138.1626  141.7545  158.8465 F       1  UNL1       -0.1876
     27 N         142.2916  140.6903  166.5633 N.3     1  UNL1       -0.2909
     28 H         143.0147  140.7190  165.8444 H       1  UNL1        0.1238
     29 C         142.9670  140.9895  167.8689 C.3     1  UNL1        0.0989
     30 C         142.4694  140.3547  169.1335 C.3     1  UNL1        0.1347
     31 O         142.9915  139.0131  169.5550 O.3     1  UNL1       -0.3827
     32 H         142.5699  138.7493  170.3878 H       1  UNL1        0.2104
     33 C         141.4497  141.0614  169.9767 C.3     1  UNL1        0.1339
     34 C         141.3587  142.5583  169.9463 C.3     1  UNL1        0.4002
     35 F         141.2677  144.0552  169.9158 F       1  UNL1       -0.1700
     36 F         142.7018  142.6534  170.6072 F       1  UNL1       -0.1700
     37 F         140.0155  142.4632  169.2853 F       1  UNL1       -0.1700
     38 C         142.0788  142.7526  166.1148 C.3     1  UNL1        0.0492
     39 C         142.8451  143.1442  164.8861 C.ar    1  UNL1       -0.0202
     40 C         142.3857  144.3043  164.0537 C.ar    1  UNL1       -0.0042
     41 C         143.1520  144.6957  162.8251 C.ar    1  UNL1       -0.0003
     42 C         144.3777  143.9271  162.4289 C.ar    1  UNL1       -0.0000
     43 C         144.8371  142.7670  163.2614 C.ar    1  UNL1       -0.0003
     44 C         144.0708  142.3755  164.4900 C.ar    1  UNL1       -0.0042
@<TRIPOS>BOND
     1    10    11    1
     2    11    12    1
     3    11     9    1
     4     9     2    1
     5     2     3   ar
     6     3     4   ar
     7     4     1    1
     8     1    38    1
     9    38    39    1
    10    39    40   ar
    11    40    41   ar
    12    41    42   ar
    13    42    43   ar
    14    43    44   ar
    15     1    27    1
    16    27    29    1
    17    29    30    1
    18    30    31    1
    19    30    33    1
    20    33    34    1
    21    34    35    1
    22    34    36    1
    23    34    37    1
    24     1    13    1
    25    13    14   ar
    26    14    15   ar
    27    15    16    1
    28    15    17   ar
    29    17    18   ar
    30    18    20    1
    31    20    21    1
    32    21    22    1
    33    21    23    1
    34    21    24    1
    35    24    25    1
    36    24    26    1
    37    18    19   ar
    38     4     5   ar
    39     5     6   ar
    40     6     7   ar
    41     7     8    1
    42     7     2   ar
    43    44    39   ar
    44    19    13   ar
    45    27    28    1
    46    31    32    1
@<TRIPOS>MOLECULE
*****
 44 46 0 0 0
SMALL
GASTEIGER

@<TRIPOS>ATOM
      1 C         141.6188  141.3073  165.4437 C.3     1  UNL1        0.0847
      2 C         142.7359  144.0791  162.8323 C.ar    1  UNL1        0.1653
      3 C         141.9743  142.9516  163.4638 C.ar    1  UNL1        0.0365
      4 C         142.3803  142.4349  164.8122 C.ar    1  UNL1       -0.0022
      5 C         143.5479  143.0456  165.5290 C.ar    1  UNL1       -0.0002
      6 C         144.3094  144.1731  164.8975 C.ar    1  UNL1        0.0325
      7 C         143.9034  144.6898  163.5492 C.ar    1  UNL1        0.1738
      8 F         144.6649  145.8174  162.9176 F       1  UNL1       -0.2010
      9 O         142.3299  144.5959  161.4839 O.3     1  UNL1       -0.4769
     10 C         139.8272  145.2749  161.6441 C.3     1  UNL1        0.0472
     11 C         140.9112  144.4473  161.0198 C.3     1  UNL1        0.1662
     12 C         140.5767  143.4710  159.9312 C.3     1  UNL1        0.0472
     13 C         140.3284  142.0106  165.1434 C.ar    1  UNL1       -0.0001
     14 C         140.0084  143.3114  165.8184 C.ar    1  UNL1        0.0271
     15 C         138.7179  144.0146  165.5180 C.ar    1  UNL1        0.1429
     16 F         138.0917  145.2915  165.9947 F       1  UNL1       -0.2041
     17 C         137.7475  143.4171  164.5427 C.ar    1  UNL1        0.0667
     18 C         138.0675  142.1163  163.8678 C.ar    1  UNL1        0.1461
     19 C         139.3579  141.4130  164.1681 C.ar    1  UNL1        0.0345
     20 O         137.0970  141.5188  162.8925 O.3     1  UNL1       -0.4263
     21 C         137.6015  140.8239  161.6626 C.3     1  UNL1        0.4723
     22 F         137.7849  142.1510  160.9881 F       1  UNL1       -0.1579
     23 F         137.4181  139.4968  162.3373 F       1  UNL1       -0.1579
     24 C         138.1060  140.1291  160.4328 C.3     1  UNL1        0.4202
     25 F         139.4126  139.3932  160.4698 F       1  UNL1       -0.1876
     26 F         137.3040  140.1700  159.1658 F       1  UNL1       -0.1876
     27 N         142.9092  140.6041  165.7440 N.3     1  UNL1       -0.2909
     28 H         142.9127  140.4101  166.7454 H       1  UNL1        0.1238
     29 C         143.2394  139.3147  165.0521 C.3     1  UNL1        0.0989
     30 C         143.2299  139.2438  163.5538 C.3     1  UNL1        0.1347
     31 O         141.9599  138.9147  162.8266 O.3     1  UNL1       -0.3827
     32 H         142.1265  138.9096  161.8710 H       1  UNL1        0.2104
     33 C         144.4904  139.5020  162.7827 C.3     1  UNL1        0.1339
     34 C         144.9582  140.9096  162.5598 C.3     1  UNL1        0.4002
     35 F         145.4260  142.3172  162.3369 F       1  UNL1       -0.1700
     36 F         145.8686  140.7950  163.7464 F       1  UNL1       -0.1700
     37 F         144.0478  141.0243  161.3731 F       1  UNL1       -0.1700
     38 C         140.8573  140.1798  166.0753 C.3     1  UNL1        0.0492
     39 C         140.6865  140.1317  167.5648 C.ar    1  UNL1       -0.0202
     40 C         139.3362  140.3695  168.1729 C.ar    1  UNL1       -0.0042
     41 C         139.1654  140.3214  169.6623 C.ar    1  UNL1       -0.0003
     42 C         140.3450  140.0354  170.5437 C.ar    1  UNL1       -0.0000
     43 C         141.6954  139.7975  169.9355 C.ar    1  UNL1       -0.0003
     44 C         141.8661  139.8457  168.4461 C.ar    1  UNL1       -0.0042
@<TRIPOS>BOND
     1    10    11    1
     2    11    12    1
     3    11     9    1
     4     9     2    1
     5     2     3   ar
     6     3     4   ar
     7     4     1    1
     8     1    38    1
     9    38    39    1
    10    39    40   ar
    11    40    41   ar
    12    41    42   ar
    13    42    43   ar
    14    43    44   ar
    15     1    27    1
    16    27    29    1
    17    29    30    1
    18    30    31    1
    19    30    33    1
    20    33    34    1
    21    34    35    1
    22    34    36    1
    23    34    37    1
    24     1    13    1
    25    13    14   ar
    26    14    15   ar
    27    15    16    1
    28    15    17   ar
    29    17    18   ar
    30    18    20    1
    31    20    21    1
    32    21    22    1
    33    21    23    1
    34    21    24    1
    35    24    25    1
    36    24    26    1
    37    18    19   ar
    38     4     5   ar
    39     5     6   ar
    40     6     7   ar
    41     7     8    1
    42     7     2   ar
    43    44    39   ar
    44    19    13   ar
    45    27    28    1
    46    31    32    1
@<TRIPOS>MOLECULE
*****
 44 46 0 0 0
SMALL
GASTEIGER

@<TRIPOS>ATOM
      1 C         140.8958  142.0077  165.6876 C.3     1  UNL1        0.0847
      2 C         142.7759  142.7113  162.2642 C.ar    1  UNL1        0.1653
      3 C         141.7395  142.2417  163.2415 C.ar    1  UNL1        0.0365
      4 C         141.9323  142.4773  164.7102 C.ar    1  UNL1       -0.0022
      5 C         143.1615  143.1827  165.2016 C.ar    1  UNL1       -0.0002
      6 C         144.1979  143.6524  164.2243 C.ar    1  UNL1        0.0325
      7 C         144.0051  143.4167  162.7556 C.ar    1  UNL1        0.1738
      8 F         145.0416  143.8864  161.7782 F       1  UNL1       -0.2010
      9 O         142.5832  142.4757  160.7953 O.3     1  UNL1       -0.4769
     10 C         140.6753  141.0842  159.7118 C.3     1  UNL1        0.0472
     11 C         142.0485  141.1607  160.3106 C.3     1  UNL1        0.1662
     12 C         142.8871  139.9222  160.4245 C.3     1  UNL1        0.0472
     13 C         141.3918  140.6001  165.5372 C.ar    1  UNL1       -0.0001
     14 C         142.6712  140.1810  166.1988 C.ar    1  UNL1        0.0271
     15 C         143.1672  138.7734  166.0484 C.ar    1  UNL1        0.1429
     16 F         144.3684  138.0321  166.5558 F       1  UNL1       -0.2041
     17 C         142.3839  137.7848  165.2365 C.ar    1  UNL1        0.0667
     18 C         141.1045  138.2039  164.5750 C.ar    1  UNL1        0.1461
     19 C         140.6085  139.6115  164.7254 C.ar    1  UNL1        0.0345
     20 O         140.3211  137.2153  163.7631 O.3     1  UNL1       -0.4263
     21 C         139.5242  137.6800  162.5804 C.3     1  UNL1        0.4723
     22 F         140.7719  137.7016  161.7482 F       1  UNL1       -0.1579
     23 F         138.2765  137.6585  163.4128 F       1  UNL1       -0.1579
     24 C         138.7273  138.1448  161.3977 C.3     1  UNL1        0.4202
     25 F         137.3261  138.6455  161.5874 F       1  UNL1       -0.1876
     26 F         139.3316  138.1089  160.0252 F       1  UNL1       -0.1876
     27 N         140.3998  143.4152  165.8379 N.3     1  UNL1       -0.2909
     28 H         141.0661  144.0157  165.3523 H       1  UNL1        0.1238
     29 C         139.0359  143.7874  165.3364 C.3     1  UNL1        0.0989
     30 C         138.8849  144.4644  164.0064 C.3     1  UNL1        0.1347
     31 O         139.8430  145.5453  163.6018 O.3     1  UNL1       -0.3827
     32 H         139.6059  145.8743  162.7207 H       1  UNL1        0.2104
     33 C         137.7757  144.0604  163.0809 C.3     1  UNL1        0.1339
     34 C         137.8681  142.7731  162.3164 C.3     1  UNL1        0.4002
     35 F         137.9605  141.4858  161.5520 F       1  UNL1       -0.1700
     36 F         136.9340  142.1250  163.2949 F       1  UNL1       -0.1700
     37 F         138.8022  143.4212  161.3379 F       1  UNL1       -0.1700
     38 C         139.8594  141.5380  166.6649 C.3     1  UNL1        0.0492
     39 C         140.1914  141.4485  168.1250 C.ar    1  UNL1       -0.0202
     40 C         140.9102  142.5779  168.8014 C.ar    1  UNL1       -0.0042
     41 C         141.2421  142.4883  170.2614 C.ar    1  UNL1       -0.0003
     42 C         140.8552  141.2692  171.0451 C.ar    1  UNL1       -0.0000
     43 C         140.1364  140.1398  170.3687 C.ar    1  UNL1       -0.0003
     44 C         139.8045  140.2294  168.9087 C.ar    1  UNL1       -0.0042
@<TRIPOS>BOND
     1    10    11    1
     2    11    12    1
     3    11     9    1
     4     9     2    1
     5     2     3   ar
     6     3     4   ar
     7     4     1    1
     8     1    38    1
     9    38    39    1
    10    39    40   ar
    11    40    41   ar
    12    41    42   ar
    13    42    43   ar
    14    43    44   ar
    15     1    27    1
    16    27    29    1
    17    29    30    1
    18    30    31    1
    19    30    33    1
    20    33    34    1
    21    34    35    1
    22    34    36    1
    23    34    37    1
    24     1    13    1
    25    13    14   ar
    26    14    15   ar
    27    15    16    1
    28    15    17   ar
    29    17    18   ar
    30    18    20    1
    31    20    21    1
    32    21    22    1
    33    21    23    1
    34    21    24    1
    35    24    25    1
    36    24    26    1
    37    18    19   ar
    38     4     5   ar
    39     5     6   ar
    40     6     7   ar
    41     7     8    1
    42     7     2   ar
    43    44    39   ar
    44    19    13   ar
    45    27    28    1
    46    31    32    1
@<TRIPOS>MOLECULE
*****
 44 46 0 0 0
SMALL
GASTEIGER

@<TRIPOS>ATOM
      1 C         141.6933  141.2473  165.1299 C.3     1  UNL1        0.0847
      2 C         141.8167  140.3906  169.0029 C.ar    1  UNL1        0.1653
      3 C         141.4959  141.0906  167.7157 C.ar    1  UNL1        0.0365
      4 C         142.0141  140.5473  166.4172 C.ar    1  UNL1       -0.0022
      5 C         142.8530  139.3039  166.4059 C.ar    1  UNL1       -0.0002
      6 C         143.1738  138.6038  167.6931 C.ar    1  UNL1        0.0325
      7 C         142.6556  139.1472  168.9916 C.ar    1  UNL1        0.1738
      8 F         142.9764  138.4471  170.2789 F       1  UNL1       -0.2010
      9 O         141.2986  140.9340  170.3016 O.3     1  UNL1       -0.4769
     10 C         139.7917  143.0233  170.6393 C.3     1  UNL1        0.0472
     11 C         141.1547  142.4150  170.4908 C.3     1  UNL1        0.1662
     12 C         142.3740  143.2878  170.5315 C.3     1  UNL1        0.0472
     13 C         140.9489  140.0345  164.6557 C.ar    1  UNL1       -0.0001
     14 C         139.8841  139.4236  165.5176 C.ar    1  UNL1        0.0271
     15 C         139.1397  138.2106  165.0434 C.ar    1  UNL1        0.1429
     16 F         138.0473  137.3644  165.6267 F       1  UNL1       -0.2041
     17 C         139.4602  137.6087  163.7074 C.ar    1  UNL1        0.0667
     18 C         140.5251  138.2197  162.8455 C.ar    1  UNL1        0.1461
     19 C         141.2694  139.4325  163.3197 C.ar    1  UNL1        0.0345
     20 O         140.8455  137.6177  161.5094 O.3     1  UNL1       -0.4263
     21 C         141.8618  138.2680  160.6182 C.3     1  UNL1        0.4723
     22 F         142.9125  137.3281  161.1306 F       1  UNL1       -0.1579
     23 F         140.8110  139.2078  160.1058 F       1  UNL1       -0.1579
     24 C         142.8781  138.9182  159.7270 C.3     1  UNL1        0.4202
     25 F         144.3216  138.9492  160.1333 F       1  UNL1       -0.1876
     26 F         142.4508  139.5375  158.4292 F       1  UNL1       -0.1876
     27 N         142.4377  142.4602  165.6040 N.3     1  UNL1       -0.2909
     28 H         142.1717  142.6069  166.5777 H       1  UNL1        0.1238
     29 C         143.9367  142.4866  165.5559 C.3     1  UNL1        0.0989
     30 C         144.6430  142.5938  164.2370 C.3     1  UNL1        0.1347
     31 O         144.4755  143.8233  163.3943 O.3     1  UNL1       -0.3827
     32 H         144.9956  143.7311  162.5807 H       1  UNL1        0.2104
     33 C         145.5170  141.4715  163.7607 C.3     1  UNL1        0.1339
     34 C         144.9194  140.1263  163.4721 C.3     1  UNL1        0.4002
     35 F         144.3219  138.7811  163.1835 F       1  UNL1       -0.1700
     36 F         145.6915  139.5380  164.6157 F       1  UNL1       -0.1700
     37 F         144.1474  140.7146  162.3284 F       1  UNL1       -0.1700
     38 C         141.3726  141.9474  163.8426 C.3     1  UNL1        0.0492
     39 C         140.0811  142.6966  163.6979 C.ar    1  UNL1       -0.0202
     40 C         139.2497  142.5262  162.4611 C.ar    1  UNL1       -0.0042
     41 C         137.9584  143.2754  162.3164 C.ar    1  UNL1       -0.0003
     42 C         137.4984  144.1950  163.4085 C.ar    1  UNL1       -0.0000
     43 C         138.3298  144.3655  164.6453 C.ar    1  UNL1       -0.0003
     44 C         139.6212  143.6163  164.7900 C.ar    1  UNL1       -0.0042
@<TRIPOS>BOND
     1    10    11    1
     2    11    12    1
     3    11     9    1
     4     9     2    1
     5     2     3   ar
     6     3     4   ar
     7     4     1    1
     8     1    38    1
     9    38    39    1
    10    39    40   ar
    11    40    41   ar
    12    41    42   ar
    13    42    43   ar
    14    43    44   ar
    15     1    27    1
    16    27    29    1
    17    29    30    1
    18    30    31    1
    19    30    33    1
    20    33    34    1
    21    34    35    1
    22    34    36    1
    23    34    37    1
    24     1    13    1
    25    13    14   ar
    26    14    15   ar
    27    15    16    1
    28    15    17   ar
    29    17    18   ar
    30    18    20    1
    31    20    21    1
    32    21    22    1
    33    21    23    1
    34    21    24    1
    35    24    25    1
    36    24    26    1
    37    18    19   ar
    38     4     5   ar
    39     5     6   ar
    40     6     7   ar
    41     7     8    1
    42     7     2   ar
    43    44    39   ar
    44    19    13   ar
    45    27    28    1
    46    31    32    1
