@<TRIPOS>MOLECULE
*****
 39 45 0 0 0
SMALL
GASTEIGER

@<TRIPOS>ATOM
      1 N         141.4867  143.2837  164.4789 N.pl3   1  UNL1       -0.3425
      2 C         140.8484  144.0777  163.3780 C.ar    1  UNL1        0.1300
      3 N         139.6631  144.9488  163.6716 N.ar    1  UNL1       -0.2094
      4 C         139.0248  145.7428  162.5707 C.ar    1  UNL1        0.2014
      5 N         139.5717  145.6658  161.1761 N.ar    1  UNL1       -0.2065
      6 C         140.7569  144.7947  160.8825 C.ar    1  UNL1        0.1482
      7 C         141.3953  144.0006  161.9834 C.ar    1  UNL1        0.0668
      8 C         142.5437  143.2346  161.3965 C.ar    1  UNL1        0.0229
      9 C         142.6151  143.5552  159.9329 C.ar    1  UNL1        0.0771
     10 N         141.5109  144.5194  159.6152 N.ar    1  UNL1       -0.3133
     11 H         141.1277  143.3342  165.3942 H       1  UNL1        0.1437
     12 H         142.2647  142.7119  164.2861 H       1  UNL1        0.1437
     13 C         143.4598  142.3103  162.1424 C.ar    1  UNL1        0.0046
     14 C         144.6735  142.8551  162.8353 C.ar    1  UNL1        0.0003
     15 C         145.5896  141.9307  163.5811 C.ar    1  UNL1        0.0031
     16 C         145.2921  140.4615  163.6341 C.ar    1  UNL1        0.0369
     17 C         144.0784  139.9166  162.9412 C.ar    1  UNL1        0.1387
     18 C         143.1623  140.8409  162.1953 C.ar    1  UNL1        0.0369
     19 O         143.7808  138.4474  162.9941 O.3     1  UNL1       -0.4729
     20 C         142.5788  137.8997  162.2835 C.3     1  UNL1        0.2321
     21 C         141.2712  137.7751  163.0081 C.3     1  UNL1        0.1329
     22 C         141.0975  137.4991  164.4722 C.3     1  UNL1        0.0334
     23 C         139.6269  137.4581  164.7648 C.3     1  UNL1        0.0321
     24 C         138.8917  137.7086  163.4816 C.3     1  UNL1        0.1153
     25 C         139.0656  137.9846  162.0174 C.3     1  UNL1        0.0321
     26 C         140.5362  138.0256  161.7248 C.3     1  UNL1        0.0334
     27 O         139.9080  137.9045  162.3958 O.3     1  UNL1       -0.3574
     28 C         141.2128  145.1054  158.2670 C.3     1  UNL1        0.0870
     29 C         141.9656  145.9628  157.2931 C.3     1  UNL1        0.0240
     30 C         140.7913  145.9342  156.3603 C.3     1  UNL1        0.0197
     31 C         140.0386  145.0769  157.3341 C.3     1  UNL1        0.0240
     32 C         140.4933  146.5202  155.0120 C.3     1  UNL1        0.0725
     33 N         139.9834  147.9266  154.9016 N.3     1  UNL1       -0.2640
     34 C         140.4563  148.8102  153.7855 C.3     1  UNL1        0.1374
     35 C         139.9465  150.2166  153.6751 C.3     1  UNL1        0.2729
     36 S         138.9638  150.7394  154.6807 S.O     1  UNL1        0.0333
     37 O         138.4540  152.1457  154.5702 O.co2   1  UNL1       -0.6812
     38 C         138.4910  149.8557  155.7967 C.3     1  UNL1        0.2729
     39 C         139.0009  148.4492  155.9072 C.3     1  UNL1        0.1374
@<TRIPOS>UNITY_ATOM_ATTR
36 1
charge 1
37 1
charge -1
@<TRIPOS>BOND
     1     1     2    1
     2     2     3   ar
     3     3     4   ar
     4     4     5   ar
     5     5     6   ar
     6     6     7   ar
     7     7     8   ar
     8     8    13    1
     9    13    14   ar
    10    14    15   ar
    11    15    16   ar
    12    16    17   ar
    13    17    19    1
    14    19    20    1
    15    20    21    1
    16    21    22    1
    17    22    23    1
    18    23    24    1
    19    24    25    1
    20    25    26    1
    21    24    27    1
    22    17    18   ar
    23     8     9   ar
    24     9    10   ar
    25    28    10    1
    26    28    29    1
    27    29    30    1
    28    30    32    1
    29    32    33    1
    30    33    34    1
    31    34    35    1
    32    35    36    1
    33    36    37    2
    34    36    38    1
    35    38    39    1
    36    30    31    1
    37     7     2   ar
    38    18    13   ar
    39    31    28    1
    40    10     6   ar
    41    39    33    1
    42    26    21    1
    43    27    21    1
    44     1    11    1
    45     1    12    1
@<TRIPOS>MOLECULE
*****
 39 45 0 0 0
SMALL
GASTEIGER

@<TRIPOS>ATOM
      1 N         139.1946  139.1408  158.3115 N.pl3   1  UNL1       -0.3425
      2 C         139.0967  139.2332  159.8055 C.ar    1  UNL1        0.1300
      3 N         137.7593  139.4153  160.4596 N.ar    1  UNL1       -0.2094
      4 C         137.6614  139.5077  161.9535 C.ar    1  UNL1        0.2014
      5 N         138.9009  139.4179  162.7934 N.ar    1  UNL1       -0.2065
      6 C         140.2384  139.2358  162.1392 C.ar    1  UNL1        0.1482
      7 C         140.3363  139.1434  160.6453 C.ar    1  UNL1        0.0668
      8 C         141.7817  138.9656  160.2856 C.ar    1  UNL1        0.0229
      9 C         142.5771  138.9481  161.5572 C.ar    1  UNL1        0.0771
     10 N         141.6233  139.1151  162.7028 N.ar    1  UNL1       -0.3133
     11 H         138.3810  139.1997  157.7603 H       1  UNL1        0.1437
     12 H         140.0725  139.0213  157.8822 H       1  UNL1        0.1437
     13 C         142.3345  138.8293  158.8979 C.ar    1  UNL1        0.0046
     14 C         142.6810  140.0543  158.1048 C.ar    1  UNL1        0.0003
     15 C         143.2339  139.9180  156.7171 C.ar    1  UNL1        0.0031
     16 C         143.4403  138.5565  156.1224 C.ar    1  UNL1        0.0369
     17 C         143.0938  137.3313  156.9155 C.ar    1  UNL1        0.1387
     18 C         142.5409  137.4677  158.3032 C.ar    1  UNL1        0.0369
     19 O         143.3001  135.9698  156.3208 O.3     1  UNL1       -0.4729
     20 C         143.2717  134.7551  157.2005 C.3     1  UNL1        0.2321
     21 C         143.7618  133.4378  156.6764 C.3     1  UNL1        0.1329
     22 C         143.4216  132.8371  155.3447 C.3     1  UNL1        0.0334
     23 C         144.1277  131.5181  155.2372 C.3     1  UNL1        0.0321
     24 C         144.9043  131.3036  156.5024 C.3     1  UNL1        0.1153
     25 C         145.2445  131.9043  157.8341 C.3     1  UNL1        0.0321
     26 C         144.5384  133.2233  157.9416 C.3     1  UNL1        0.0334
     27 O         144.6782  132.4900  157.3919 O.3     1  UNL1       -0.3574
     28 C         141.9899  139.1544  164.1568 C.3     1  UNL1        0.0870
     29 C         141.5474  138.4118  165.3827 C.3     1  UNL1        0.0240
     30 C         142.5084  139.2100  166.2131 C.3     1  UNL1        0.0197
     31 C         142.9509  139.9525  164.9871 C.3     1  UNL1        0.0240
     32 C         142.8750  139.2493  167.6670 C.3     1  UNL1        0.0725
     33 N         142.1081  140.1278  168.6104 N.3     1  UNL1       -0.2640
     34 C         140.6083  140.1292  168.5822 C.3     1  UNL1        0.1374
     35 C         139.8413  141.0076  169.5256 C.3     1  UNL1        0.2729
     36 S         140.5740  141.8847  170.4972 S.O     1  UNL1        0.0333
     37 O         139.8070  142.7632  171.4406 O.co2   1  UNL1       -0.6812
     38 C         142.0737  141.8833  170.5253 C.3     1  UNL1        0.2729
     39 C         142.8407  141.0048  169.5819 C.3     1  UNL1        0.1374
@<TRIPOS>UNITY_ATOM_ATTR
36 1
charge 1
37 1
charge -1
@<TRIPOS>BOND
     1     1     2    1
     2     2     3   ar
     3     3     4   ar
     4     4     5   ar
     5     5     6   ar
     6     6     7   ar
     7     7     8   ar
     8     8    13    1
     9    13    14   ar
    10    14    15   ar
    11    15    16   ar
    12    16    17   ar
    13    17    19    1
    14    19    20    1
    15    20    21    1
    16    21    22    1
    17    22    23    1
    18    23    24    1
    19    24    25    1
    20    25    26    1
    21    24    27    1
    22    17    18   ar
    23     8     9   ar
    24     9    10   ar
    25    28    10    1
    26    28    29    1
    27    29    30    1
    28    30    32    1
    29    32    33    1
    30    33    34    1
    31    34    35    1
    32    35    36    1
    33    36    37    2
    34    36    38    1
    35    38    39    1
    36    30    31    1
    37     7     2   ar
    38    18    13   ar
    39    31    28    1
    40    10     6   ar
    41    39    33    1
    42    26    21    1
    43    27    21    1
    44     1    11    1
    45     1    12    1
@<TRIPOS>MOLECULE
*****
 39 45 0 0 0
SMALL
GASTEIGER

@<TRIPOS>ATOM
      1 N         138.5502  142.6873  163.0012 N.pl3   1  UNL1       -0.3425
      2 C         138.8767  142.3076  161.5873 C.ar    1  UNL1        0.1300
      3 N         138.5963  143.2673  160.4691 N.ar    1  UNL1       -0.2094
      4 C         138.9228  142.8875  159.0552 C.ar    1  UNL1        0.2014
      5 N         139.5297  141.5481  158.7594 N.ar    1  UNL1       -0.2065
      6 C         139.8101  140.5884  159.8775 C.ar    1  UNL1        0.1482
      7 C         139.4836  140.9681  161.2915 C.ar    1  UNL1        0.0668
      8 C         139.8699  139.8230  162.1799 C.ar    1  UNL1        0.0229
      9 C         140.4352  138.7355  161.3151 C.ar    1  UNL1        0.0771
     10 N         140.3982  139.2086  159.8922 N.ar    1  UNL1       -0.3133
     11 H         138.1519  143.5664  163.1953 H       1  UNL1        0.1437
     12 H         138.7343  142.0574  163.7351 H       1  UNL1        0.1437
     13 C         139.7177  139.7739  163.6714 C.ar    1  UNL1        0.0046
     14 C         138.3623  139.5708  164.2807 C.ar    1  UNL1        0.0003
     15 C         138.2101  139.5218  165.7722 C.ar    1  UNL1        0.0031
     16 C         139.4134  139.6758  166.6543 C.ar    1  UNL1        0.0369
     17 C         140.7689  139.8789  166.0450 C.ar    1  UNL1        0.1387
     18 C         140.9211  139.9280  164.5536 C.ar    1  UNL1        0.0369
     19 O         141.9723  140.0330  166.9271 O.3     1  UNL1       -0.4729
     20 C         142.5363  141.3969  167.1947 C.3     1  UNL1        0.2321
     21 C         141.9476  142.2530  168.2767 C.3     1  UNL1        0.1329
     22 C         140.5580  142.8176  168.2963 C.3     1  UNL1        0.0334
     23 C         140.3967  143.6082  169.5607 C.3     1  UNL1        0.0321
     24 C         141.6865  143.5322  170.3227 C.3     1  UNL1        0.1153
     25 C         143.0761  142.9676  170.3031 C.3     1  UNL1        0.0321
     26 C         143.2374  142.1770  169.0386 C.3     1  UNL1        0.0334
     27 O         142.6450  142.6946  169.5291 O.3     1  UNL1       -0.3574
     28 C         140.8670  138.4372  158.6941 C.3     1  UNL1        0.0870
     29 C         140.2075  137.8769  157.4688 C.3     1  UNL1        0.0240
     30 C         141.5299  137.3464  156.9998 C.3     1  UNL1        0.0197
     31 C         142.1893  137.9067  158.2250 C.3     1  UNL1        0.0240
     32 C         141.9987  136.5751  155.8017 C.3     1  UNL1        0.0725
     33 N         142.1551  135.0855  155.8829 N.3     1  UNL1       -0.2640
     34 C         141.3093  134.1946  155.0220 C.3     1  UNL1        0.1374
     35 C         141.4657  132.7050  155.1032 C.3     1  UNL1        0.2729
     36 S         142.4677  132.1062  156.0452 S.O     1  UNL1        0.0333
     37 O         142.6241  130.6166  156.1264 O.co2   1  UNL1       -0.6812
     38 C         143.3134  132.9971  156.9061 C.3     1  UNL1        0.2729
     39 C         143.1570  134.4868  156.8249 C.3     1  UNL1        0.1374
@<TRIPOS>UNITY_ATOM_ATTR
36 1
charge 1
37 1
charge -1
@<TRIPOS>BOND
     1     1     2    1
     2     2     3   ar
     3     3     4   ar
     4     4     5   ar
     5     5     6   ar
     6     6     7   ar
     7     7     8   ar
     8     8    13    1
     9    13    14   ar
    10    14    15   ar
    11    15    16   ar
    12    16    17   ar
    13    17    19    1
    14    19    20    1
    15    20    21    1
    16    21    22    1
    17    22    23    1
    18    23    24    1
    19    24    25    1
    20    25    26    1
    21    24    27    1
    22    17    18   ar
    23     8     9   ar
    24     9    10   ar
    25    28    10    1
    26    28    29    1
    27    29    30    1
    28    30    32    1
    29    32    33    1
    30    33    34    1
    31    34    35    1
    32    35    36    1
    33    36    37    2
    34    36    38    1
    35    38    39    1
    36    30    31    1
    37     7     2   ar
    38    18    13   ar
    39    31    28    1
    40    10     6   ar
    41    39    33    1
    42    26    21    1
    43    27    21    1
    44     1    11    1
    45     1    12    1
@<TRIPOS>MOLECULE
*****
 39 45 0 0 0
SMALL
GASTEIGER

@<TRIPOS>ATOM
      1 N         143.4480  141.0186  158.0506 N.pl3   1  UNL1       -0.3425
      2 C         143.6905  141.3183  159.5002 C.ar    1  UNL1        0.1300
      3 N         144.5171  142.5071  159.8922 N.ar    1  UNL1       -0.2094
      4 C         144.7596  142.8069  161.3418 C.ar    1  UNL1        0.2014
      5 N         144.1756  141.9179  162.3994 N.ar    1  UNL1       -0.2065
      6 C         143.3491  140.7291  162.0074 C.ar    1  UNL1        0.1482
      7 C         143.1065  140.4294  160.5578 C.ar    1  UNL1        0.0668
      8 C         142.2571  139.1958  160.4754 C.ar    1  UNL1        0.0229
      9 C         141.9746  138.7332  161.8740 C.ar    1  UNL1        0.0771
     10 N         142.6495  139.6808  162.8209 N.ar    1  UNL1       -0.3133
     11 H         143.8313  141.6021  157.3565 H       1  UNL1        0.1437
     12 H         142.9055  140.2383  157.7934 H       1  UNL1        0.1437
     13 C         141.7748  138.5400  159.2155 C.ar    1  UNL1        0.0046
     14 C         140.3919  138.8197  158.7063 C.ar    1  UNL1        0.0003
     15 C         139.9096  138.1639  157.4464 C.ar    1  UNL1        0.0031
     16 C         140.8103  137.2284  156.6957 C.ar    1  UNL1        0.0369
     17 C         142.1932  136.9487  157.2048 C.ar    1  UNL1        0.1387
     18 C         142.6755  137.6045  158.4647 C.ar    1  UNL1        0.0369
     19 O         143.0939  136.0132  156.4541 O.3     1  UNL1       -0.4729
     20 C         143.3175  134.6193  156.9611 C.3     1  UNL1        0.2321
     21 C         142.6208  133.4627  156.3076 C.3     1  UNL1        0.1329
     22 C         141.5319  133.5557  155.2801 C.3     1  UNL1        0.0334
     23 C         141.1288  132.1607  154.9044 C.3     1  UNL1        0.0321
     24 C         141.9685  131.2054  155.6995 C.3     1  UNL1        0.1153
     25 C         143.0574  131.1124  156.7270 C.3     1  UNL1        0.0321
     26 C         143.4605  132.5075  157.1028 C.3     1  UNL1        0.0334
     27 O         142.8906  132.0101  156.5668 O.3     1  UNL1       -0.3574
     28 C         142.6285  139.5952  164.3183 C.3     1  UNL1        0.0870
     29 C         143.6693  139.4316  165.3860 C.3     1  UNL1        0.0240
     30 C         142.5989  139.4742  166.4360 C.3     1  UNL1        0.0197
     31 C         141.5581  139.6378  165.3682 C.3     1  UNL1        0.0240
     32 C         142.5779  139.3886  167.9334 C.3     1  UNL1        0.0725
     33 N         141.7638  140.3653  168.7291 N.3     1  UNL1       -0.2640
     34 C         141.8523  141.8330  168.4319 C.3     1  UNL1        0.1374
     35 C         141.0382  142.8097  169.2276 C.3     1  UNL1        0.2729
     36 S         140.1355  142.3189  170.3205 S.O     1  UNL1        0.0333
     37 O         139.3214  143.2957  171.1162 O.co2   1  UNL1       -0.6812
     38 C         140.0470  140.8513  170.6176 C.3     1  UNL1        0.2729
     39 C         140.8612  139.8745  169.8219 C.3     1  UNL1        0.1374
@<TRIPOS>UNITY_ATOM_ATTR
36 1
charge 1
37 1
charge -1
@<TRIPOS>BOND
     1     1     2    1
     2     2     3   ar
     3     3     4   ar
     4     4     5   ar
     5     5     6   ar
     6     6     7   ar
     7     7     8   ar
     8     8    13    1
     9    13    14   ar
    10    14    15   ar
    11    15    16   ar
    12    16    17   ar
    13    17    19    1
    14    19    20    1
    15    20    21    1
    16    21    22    1
    17    22    23    1
    18    23    24    1
    19    24    25    1
    20    25    26    1
    21    24    27    1
    22    17    18   ar
    23     8     9   ar
    24     9    10   ar
    25    28    10    1
    26    28    29    1
    27    29    30    1
    28    30    32    1
    29    32    33    1
    30    33    34    1
    31    34    35    1
    32    35    36    1
    33    36    37    2
    34    36    38    1
    35    38    39    1
    36    30    31    1
    37     7     2   ar
    38    18    13   ar
    39    31    28    1
    40    10     6   ar
    41    39    33    1
    42    26    21    1
    43    27    21    1
    44     1    11    1
    45     1    12    1
@<TRIPOS>MOLECULE
*****
 39 45 0 0 0
SMALL
GASTEIGER

@<TRIPOS>ATOM
      1 N         142.5215  144.7641  161.4557 N.pl3   1  UNL1       -0.3425
      2 C         142.2606  144.0278  160.1751 C.ar    1  UNL1        0.1300
      3 N         141.8635  144.7846  158.9425 N.ar    1  UNL1       -0.2094
      4 C         141.6026  144.0483  157.6619 C.ar    1  UNL1        0.2014
      5 N         141.7389  142.5553  157.6140 N.ar    1  UNL1       -0.2065
      6 C         142.1360  141.7986  158.8467 C.ar    1  UNL1        0.1482
      7 C         142.3969  142.5348  160.1273 C.ar    1  UNL1        0.0668
      8 C         142.7704  141.5270  161.1735 C.ar    1  UNL1        0.0229
      9 C         142.7404  140.1678  160.5396 C.ar    1  UNL1        0.0771
     10 N         142.3483  140.3357  159.1016 N.ar    1  UNL1       -0.3133
     11 H         142.4321  145.7440  161.4871 H       1  UNL1        0.1437
     12 H         142.7822  144.2674  162.2648 H       1  UNL1        0.1437
     13 C         143.1137  141.8258  162.6028 C.ar    1  UNL1        0.0046
     14 C         144.5390  142.0807  162.9944 C.ar    1  UNL1        0.0003
     15 C         144.8823  142.3796  164.4236 C.ar    1  UNL1        0.0031
     16 C         143.8002  142.4236  165.4615 C.ar    1  UNL1        0.0369
     17 C         142.3748  142.1687  165.0700 C.ar    1  UNL1        0.1387
     18 C         142.0315  141.8698  163.6407 C.ar    1  UNL1        0.0369
     19 O         141.2926  142.2126  166.1077 O.3     1  UNL1       -0.4729
     20 C         140.1904  143.2243  165.9995 C.3     1  UNL1        0.2321
     21 C         139.1650  143.1027  164.9114 C.3     1  UNL1        0.1329
     22 C         138.2901  141.9119  164.6535 C.3     1  UNL1        0.0334
     23 C         137.4189  142.2238  163.4730 C.3     1  UNL1        0.0321
     24 C         137.7552  143.6074  163.0013 C.3     1  UNL1        0.1153
     25 C         138.6302  144.7982  163.2592 C.3     1  UNL1        0.0321
     26 C         139.5014  144.4863  164.4397 C.3     1  UNL1        0.0334
     27 O         138.8344  144.1506  163.8903 O.3     1  UNL1       -0.3574
     28 C         142.1954  139.2341  158.0950 C.3     1  UNL1        0.0870
     29 C         141.2548  138.0785  157.9221 C.3     1  UNL1        0.0240
     30 C         141.9790  137.6762  156.6716 C.3     1  UNL1        0.0197
     31 C         142.9195  138.8318  156.8446 C.3     1  UNL1        0.0240
     32 C         141.8260  136.5746  155.6651 C.3     1  UNL1        0.0725
     33 N         142.1956  135.1677  156.0310 N.3     1  UNL1       -0.2640
     34 C         141.5529  134.0141  155.3194 C.3     1  UNL1        0.1374
     35 C         141.9224  132.6072  155.6853 C.3     1  UNL1        0.2729
     36 S         142.9347  132.3537  156.7629 S.O     1  UNL1        0.0333
     37 O         143.3042  130.9467  157.1288 O.co2   1  UNL1       -0.6812
     38 C         143.5774  133.5072  157.4745 C.3     1  UNL1        0.2729
     39 C         143.2078  134.9142  157.1085 C.3     1  UNL1        0.1374
@<TRIPOS>UNITY_ATOM_ATTR
36 1
charge 1
37 1
charge -1
@<TRIPOS>BOND
     1     1     2    1
     2     2     3   ar
     3     3     4   ar
     4     4     5   ar
     5     5     6   ar
     6     6     7   ar
     7     7     8   ar
     8     8    13    1
     9    13    14   ar
    10    14    15   ar
    11    15    16   ar
    12    16    17   ar
    13    17    19    1
    14    19    20    1
    15    20    21    1
    16    21    22    1
    17    22    23    1
    18    23    24    1
    19    24    25    1
    20    25    26    1
    21    24    27    1
    22    17    18   ar
    23     8     9   ar
    24     9    10   ar
    25    28    10    1
    26    28    29    1
    27    29    30    1
    28    30    32    1
    29    32    33    1
    30    33    34    1
    31    34    35    1
    32    35    36    1
    33    36    37    2
    34    36    38    1
    35    38    39    1
    36    30    31    1
    37     7     2   ar
    38    18    13   ar
    39    31    28    1
    40    10     6   ar
    41    39    33    1
    42    26    21    1
    43    27    21    1
    44     1    11    1
    45     1    12    1
@<TRIPOS>MOLECULE
*****
 39 45 0 0 0
SMALL
GASTEIGER

@<TRIPOS>ATOM
      1 N         138.1350  142.7605  162.1886 N.pl3   1  UNL1       -0.3425
      2 C         138.5203  142.2308  160.8392 C.ar    1  UNL1        0.1300
      3 N         138.0990  142.9610  159.5986 N.ar    1  UNL1       -0.2094
      4 C         138.4843  142.4314  158.2491 C.ar    1  UNL1        0.2014
      5 N         139.2909  141.1714  158.1403 N.ar    1  UNL1       -0.2065
      6 C         139.7123  140.4412  159.3809 C.ar    1  UNL1        0.1482
      7 C         139.3269  140.9709  160.7304 C.ar    1  UNL1        0.0668
      8 C         139.8822  140.0417  161.7688 C.ar    1  UNL1        0.0229
      9 C         140.6106  138.9378  161.0613 C.ar    1  UNL1        0.0771
     10 N         140.5056  139.1847  159.5855 N.ar    1  UNL1       -0.3133
     11 H         137.6055  143.5874  162.2600 H       1  UNL1        0.1437
     12 H         138.4115  142.2812  163.0029 H       1  UNL1        0.1437
     13 C         139.7348  140.1904  163.2542 C.ar    1  UNL1        0.0046
     14 C         138.6014  139.5142  163.9669 C.ar    1  UNL1        0.0003
     15 C         138.4540  139.6629  165.4522 C.ar    1  UNL1        0.0031
     16 C         139.4401  140.4879  166.2248 C.ar    1  UNL1        0.0369
     17 C         140.5735  141.1642  165.5122 C.ar    1  UNL1        0.1387
     18 C         140.7209  141.0155  164.0269 C.ar    1  UNL1        0.0369
     19 O         141.5596  141.9892  166.2848 O.3     1  UNL1       -0.4729
     20 C         142.9944  142.0441  165.8508 C.3     1  UNL1        0.2321
     21 C         143.3934  142.9009  164.6859 C.3     1  UNL1        0.1329
     22 C         142.8019  144.2318  164.3269 C.3     1  UNL1        0.0334
     23 C         143.4968  144.7307  163.0948 C.3     1  UNL1        0.0321
     24 C         144.5177  143.7081  162.6922 C.3     1  UNL1        0.1153
     25 C         145.1092  142.3772  163.0512 C.3     1  UNL1        0.0321
     26 C         144.4143  141.8783  164.2834 C.3     1  UNL1        0.0334
     27 O         144.4538  142.5773  163.6756 O.3     1  UNL1       -0.3574
     28 C         141.0912  138.3259  158.5040 C.3     1  UNL1        0.0870
     29 C         140.5747  137.7254  157.2301 C.3     1  UNL1        0.0240
     30 C         141.9191  137.1113  156.9744 C.3     1  UNL1        0.0197
     31 C         142.4356  137.7119  158.2483 C.3     1  UNL1        0.0240
     32 C         142.5047  136.2525  155.8930 C.3     1  UNL1        0.0725
     33 N         142.6063  134.7685  156.0862 N.3     1  UNL1       -0.2640
     34 C         141.6884  133.8499  155.3354 C.3     1  UNL1        0.1374
     35 C         141.7900  132.3659  155.5286 C.3     1  UNL1        0.2729
     36 S         142.8095  131.8004  156.4726 S.O     1  UNL1        0.0333
     37 O         142.9111  130.3164  156.6658 O.co2   1  UNL1       -0.6812
     38 C         143.7273  132.7191  157.2233 C.3     1  UNL1        0.2729
     39 C         143.6257  134.2032  157.0301 C.3     1  UNL1        0.1374
@<TRIPOS>UNITY_ATOM_ATTR
36 1
charge 1
37 1
charge -1
@<TRIPOS>BOND
     1     1     2    1
     2     2     3   ar
     3     3     4   ar
     4     4     5   ar
     5     5     6   ar
     6     6     7   ar
     7     7     8   ar
     8     8    13    1
     9    13    14   ar
    10    14    15   ar
    11    15    16   ar
    12    16    17   ar
    13    17    19    1
    14    19    20    1
    15    20    21    1
    16    21    22    1
    17    22    23    1
    18    23    24    1
    19    24    25    1
    20    25    26    1
    21    24    27    1
    22    17    18   ar
    23     8     9   ar
    24     9    10   ar
    25    28    10    1
    26    28    29    1
    27    29    30    1
    28    30    32    1
    29    32    33    1
    30    33    34    1
    31    34    35    1
    32    35    36    1
    33    36    37    2
    34    36    38    1
    35    38    39    1
    36    30    31    1
    37     7     2   ar
    38    18    13   ar
    39    31    28    1
    40    10     6   ar
    41    39    33    1
    42    26    21    1
    43    27    21    1
    44     1    11    1
    45     1    12    1
@<TRIPOS>MOLECULE
*****
 39 45 0 0 0
SMALL
GASTEIGER

@<TRIPOS>ATOM
      1 N         141.0369  145.5427  161.0333 N.pl3   1  UNL1       -0.3425
      2 C         141.3369  144.7494  159.7961 C.ar    1  UNL1        0.1300
      3 N         141.9900  145.4126  158.6199 N.ar    1  UNL1       -0.2094
      4 C         142.2900  144.6192  157.3827 C.ar    1  UNL1        0.2014
      5 N         141.9368  143.1627  157.3217 N.ar    1  UNL1       -0.2065
      6 C         141.2837  142.4995  158.4980 C.ar    1  UNL1        0.1482
      7 C         140.9838  143.2928  159.7351 C.ar    1  UNL1        0.0668
      8 C         140.3385  142.3740  160.7299 C.ar    1  UNL1        0.0229
      9 C         140.2397  141.0128  160.1075 C.ar    1  UNL1        0.0771
     10 N         140.8239  141.0904  158.7281 N.ar    1  UNL1       -0.3133
     11 H         141.2687  146.4987  161.0733 H       1  UNL1        0.1437
     12 H         140.6083  145.1074  161.8053 H       1  UNL1        0.1437
     13 C         139.8737  142.7503  162.1055 C.ar    1  UNL1        0.0046
     14 C         138.4500  143.1664  162.3285 C.ar    1  UNL1        0.0003
     15 C         137.9852  143.5427  163.7041 C.ar    1  UNL1        0.0031
     16 C         138.9442  143.5030  164.8568 C.ar    1  UNL1        0.0369
     17 C         140.3680  143.0870  164.6339 C.ar    1  UNL1        0.1387
     18 C         140.8328  142.7106  163.2582 C.ar    1  UNL1        0.0369
     19 O         141.3270  143.0472  165.7865 O.3     1  UNL1       -0.4729
     20 C         142.1596  141.8230  166.0275 C.3     1  UNL1        0.2321
     21 C         143.4184  141.6053  165.2412 C.3     1  UNL1        0.1329
     22 C         144.3601  142.6740  164.7710 C.3     1  UNL1        0.0334
     23 C         145.4801  142.0099  164.0264 C.3     1  UNL1        0.0321
     24 C         145.2307  140.5309  164.0364 C.3     1  UNL1        0.1153
     25 C         144.2890  139.4622  164.5067 C.3     1  UNL1        0.0321
     26 C         143.1689  140.1262  165.2513 C.3     1  UNL1        0.0334
     27 O         143.9565  140.2808  164.7872 O.3     1  UNL1       -0.3574
     28 C         140.9296  139.9577  157.7504 C.3     1  UNL1        0.0870
     29 C         141.8635  139.6074  156.6299 C.3     1  UNL1        0.0240
     30 C         141.0793  138.3559  156.3677 C.3     1  UNL1        0.0197
     31 C         140.1455  138.7062  157.4881 C.3     1  UNL1        0.0240
     32 C         141.1851  137.2232  155.3900 C.3     1  UNL1        0.0725
     33 N         141.7636  135.9091  155.8243 N.3     1  UNL1       -0.2640
     34 C         142.8243  135.8704  156.8842 C.3     1  UNL1        0.1374
     35 C         143.4029  134.5563  157.3185 C.3     1  UNL1        0.2729
     36 S         142.9207  133.2811  156.6929 S.O     1  UNL1        0.0333
     37 O         143.4992  131.9670  157.1272 O.co2   1  UNL1       -0.6812
     38 C         141.8600  133.3199  155.6330 C.3     1  UNL1        0.2729
     39 C         141.2815  134.6340  155.1987 C.3     1  UNL1        0.1374
@<TRIPOS>UNITY_ATOM_ATTR
36 1
charge 1
37 1
charge -1
@<TRIPOS>BOND
     1     1     2    1
     2     2     3   ar
     3     3     4   ar
     4     4     5   ar
     5     5     6   ar
     6     6     7   ar
     7     7     8   ar
     8     8    13    1
     9    13    14   ar
    10    14    15   ar
    11    15    16   ar
    12    16    17   ar
    13    17    19    1
    14    19    20    1
    15    20    21    1
    16    21    22    1
    17    22    23    1
    18    23    24    1
    19    24    25    1
    20    25    26    1
    21    24    27    1
    22    17    18   ar
    23     8     9   ar
    24     9    10   ar
    25    28    10    1
    26    28    29    1
    27    29    30    1
    28    30    32    1
    29    32    33    1
    30    33    34    1
    31    34    35    1
    32    35    36    1
    33    36    37    2
    34    36    38    1
    35    38    39    1
    36    30    31    1
    37     7     2   ar
    38    18    13   ar
    39    31    28    1
    40    10     6   ar
    41    39    33    1
    42    26    21    1
    43    27    21    1
    44     1    11    1
    45     1    12    1
@<TRIPOS>MOLECULE
*****
 39 45 0 0 0
SMALL
GASTEIGER

@<TRIPOS>ATOM
      1 N         139.1363  139.0520  156.8481 N.pl3   1  UNL1       -0.3425
      2 C         139.1218  139.3361  158.3209 C.ar    1  UNL1        0.1300
      3 N         137.9211  139.9793  158.9489 N.ar    1  UNL1       -0.2094
      4 C         137.9066  140.2634  160.4217 C.ar    1  UNL1        0.2014
      5 N         139.0929  139.9043  161.2664 N.ar    1  UNL1       -0.2065
      6 C         140.2937  139.2611  160.6384 C.ar    1  UNL1        0.1482
      7 C         140.3081  138.9770  159.1656 C.ar    1  UNL1        0.0668
      8 C         141.6233  138.3388  158.8296 C.ar    1  UNL1        0.0229
      9 C         142.4218  138.2285  160.0946 C.ar    1  UNL1        0.0771
     10 N         141.6000  138.7985  161.2125 N.ar    1  UNL1       -0.3133
     11 H         138.3576  139.2877  156.2936 H       1  UNL1        0.1437
     12 H         139.9244  138.6298  156.4359 H       1  UNL1        0.1437
     13 C         142.0629  137.8898  157.4676 C.ar    1  UNL1        0.0046
     14 C         142.8798  138.8042  156.6037 C.ar    1  UNL1        0.0003
     15 C         143.3194  138.3552  155.2417 C.ar    1  UNL1        0.0031
     16 C         142.9421  136.9916  154.7435 C.ar    1  UNL1        0.0369
     17 C         142.1252  136.0770  155.6073 C.ar    1  UNL1        0.1387
     18 C         141.6856  136.5261  156.9693 C.ar    1  UNL1        0.0369
     19 O         141.7479  134.7134  155.1092 O.3     1  UNL1       -0.4729
     20 C         142.8161  133.7372  154.7142 C.3     1  UNL1        0.2321
     21 C         143.6420  133.0618  155.7687 C.3     1  UNL1        0.1329
     22 C         144.0162  133.6410  157.1008 C.3     1  UNL1        0.0334
     23 C         144.8441  132.6259  157.8315 C.3     1  UNL1        0.0321
     24 C         144.9816  131.4193  156.9510 C.3     1  UNL1        0.1153
     25 C         144.6074  130.8401  155.6189 C.3     1  UNL1        0.0321
     26 C         143.7795  131.8553  154.8882 C.3     1  UNL1        0.0334
     27 O         144.2387  131.6887  155.6761 O.3     1  UNL1       -0.3574
     28 C         142.0121  138.8899  162.6519 C.3     1  UNL1        0.0870
     29 C         142.5908  139.9651  163.5233 C.3     1  UNL1        0.0240
     30 C         142.5950  139.0192  164.6875 C.3     1  UNL1        0.0197
     31 C         142.0163  137.9441  163.8161 C.3     1  UNL1        0.0240
     32 C         143.0071  139.1106  166.1269 C.3     1  UNL1        0.0725
     33 N         142.0031  139.4997  167.1712 N.3     1  UNL1       -0.2640
     34 C         142.4068  139.5577  168.6148 C.3     1  UNL1        0.1374
     35 C         141.4028  139.9468  169.6592 C.3     1  UNL1        0.2729
     36 S         139.9953  140.2779  169.2601 S.O     1  UNL1        0.0333
     37 O         138.9913  140.6670  170.3044 O.co2   1  UNL1       -0.6812
     38 C         139.5917  140.2199  167.8165 C.3     1  UNL1        0.2729
     39 C         140.5957  139.8308  166.7721 C.3     1  UNL1        0.1374
@<TRIPOS>UNITY_ATOM_ATTR
36 1
charge 1
37 1
charge -1
@<TRIPOS>BOND
     1     1     2    1
     2     2     3   ar
     3     3     4   ar
     4     4     5   ar
     5     5     6   ar
     6     6     7   ar
     7     7     8   ar
     8     8    13    1
     9    13    14   ar
    10    14    15   ar
    11    15    16   ar
    12    16    17   ar
    13    17    19    1
    14    19    20    1
    15    20    21    1
    16    21    22    1
    17    22    23    1
    18    23    24    1
    19    24    25    1
    20    25    26    1
    21    24    27    1
    22    17    18   ar
    23     8     9   ar
    24     9    10   ar
    25    28    10    1
    26    28    29    1
    27    29    30    1
    28    30    32    1
    29    32    33    1
    30    33    34    1
    31    34    35    1
    32    35    36    1
    33    36    37    2
    34    36    38    1
    35    38    39    1
    36    30    31    1
    37     7     2   ar
    38    18    13   ar
    39    31    28    1
    40    10     6   ar
    41    39    33    1
    42    26    21    1
    43    27    21    1
    44     1    11    1
    45     1    12    1
@<TRIPOS>MOLECULE
*****
 39 45 0 0 0
SMALL
GASTEIGER

@<TRIPOS>ATOM
      1 N         140.8376  145.5076  161.2878 N.pl3   1  UNL1       -0.3425
      2 C         141.1776  144.7717  160.0257 C.ar    1  UNL1        0.1300
      3 N         141.8402  145.4951  158.8910 N.ar    1  UNL1       -0.2094
      4 C         142.1802  144.7592  157.6290 C.ar    1  UNL1        0.2014
      5 N         141.8576  143.2998  157.5016 N.ar    1  UNL1       -0.2065
      6 C         141.1950  142.5764  158.6363 C.ar    1  UNL1        0.1482
      7 C         140.8550  143.3124  159.8984 C.ar    1  UNL1        0.0668
      8 C         140.2090  142.3412  160.8415 C.ar    1  UNL1        0.0229
      9 C         140.1497  141.0051  160.1624 C.ar    1  UNL1        0.0771
     10 N         140.7591  141.1505  158.7995 N.ar    1  UNL1       -0.3133
     11 H         141.0493  146.4654  161.3714 H       1  UNL1        0.1437
     12 H         140.4027  145.0328  162.0326 H       1  UNL1        0.1437
     13 C         139.7099  142.6517  162.2216 C.ar    1  UNL1        0.0046
     14 C         138.3667  143.2930  162.4067 C.ar    1  UNL1        0.0003
     15 C         137.8675  143.6035  163.7867 C.ar    1  UNL1        0.0031
     16 C         138.7117  143.2727  164.9817 C.ar    1  UNL1        0.0369
     17 C         140.0550  142.6313  164.7966 C.ar    1  UNL1        0.1387
     18 C         140.5541  142.3208  163.4166 C.ar    1  UNL1        0.0369
     19 O         140.8992  142.3005  165.9915 O.3     1  UNL1       -0.4729
     20 C         141.2169  140.8701  166.3123 C.3     1  UNL1        0.2321
     21 C         140.1876  139.8034  166.0825 C.3     1  UNL1        0.1329
     22 C         138.8183  139.7533  166.6929 C.3     1  UNL1        0.0334
     23 C         138.1314  138.5185  166.1896 C.3     1  UNL1        0.0321
     24 C         139.0759  137.8055  165.2680 C.3     1  UNL1        0.1153
     25 C         140.4452  137.8557  164.6575 C.3     1  UNL1        0.0321
     26 C         141.1322  139.0904  165.1609 C.3     1  UNL1        0.0334
     27 O         140.3468  138.5996  165.2018 O.3     1  UNL1       -0.3574
     28 C         140.9067  140.0612  157.7789 C.3     1  UNL1        0.0870
     29 C         140.2452  138.7365  157.5381 C.3     1  UNL1        0.0240
     30 C         141.1154  138.5205  156.3356 C.3     1  UNL1        0.0197
     31 C         141.7769  139.8451  156.5764 C.3     1  UNL1        0.0240
     32 C         141.2630  137.4312  155.3150 C.3     1  UNL1        0.0725
     33 N         141.7741  136.0823  155.7264 N.3     1  UNL1       -0.2640
     34 C         141.2096  134.8428  155.0978 C.3     1  UNL1        0.1374
     35 C         141.7207  133.4939  155.5092 C.3     1  UNL1        0.2729
     36 S         142.7962  133.3844  156.5490 S.O     1  UNL1        0.0333
     37 O         143.3073  132.0355  156.9604 O.co2   1  UNL1       -0.6812
     38 C         143.3607  134.6239  157.1776 C.3     1  UNL1        0.2729
     39 C         142.8496  135.9729  156.7662 C.3     1  UNL1        0.1374
@<TRIPOS>UNITY_ATOM_ATTR
36 1
charge 1
37 1
charge -1
@<TRIPOS>BOND
     1     1     2    1
     2     2     3   ar
     3     3     4   ar
     4     4     5   ar
     5     5     6   ar
     6     6     7   ar
     7     7     8   ar
     8     8    13    1
     9    13    14   ar
    10    14    15   ar
    11    15    16   ar
    12    16    17   ar
    13    17    19    1
    14    19    20    1
    15    20    21    1
    16    21    22    1
    17    22    23    1
    18    23    24    1
    19    24    25    1
    20    25    26    1
    21    24    27    1
    22    17    18   ar
    23     8     9   ar
    24     9    10   ar
    25    28    10    1
    26    28    29    1
    27    29    30    1
    28    30    32    1
    29    32    33    1
    30    33    34    1
    31    34    35    1
    32    35    36    1
    33    36    37    2
    34    36    38    1
    35    38    39    1
    36    30    31    1
    37     7     2   ar
    38    18    13   ar
    39    31    28    1
    40    10     6   ar
    41    39    33    1
    42    26    21    1
    43    27    21    1
    44     1    11    1
    45     1    12    1
