@<TRIPOS>MOLECULE
*****
 32 37 0 0 0
SMALL
GASTEIGER

@<TRIPOS>ATOM
      1 N         140.5578  141.6772  167.9331 N.ar    1  UNL1       -0.2338
      2 N         140.9224  142.7105  166.9088 N.ar    1  UNL1       -0.1679
      3 C         140.1980  142.3791  165.6378 C.ar    1  UNL1        0.1065
      4 C         139.3857  141.1408  165.8767 C.ar    1  UNL1        0.0860
      5 C         138.4723  140.3523  164.9857 C.ar    1  UNL1        0.1316
      6 N         138.2499  140.7861  163.5671 N.pl3   1  UNL1       -0.3425
      7 N         137.7813  139.1299  165.5132 N.ar    1  UNL1       -0.2093
      8 C         138.0037  138.6961  166.9318 C.ar    1  UNL1        0.2014
      9 N         138.9171  139.4847  167.8228 N.ar    1  UNL1       -0.2050
     10 C         139.6081  140.7070  167.2952 C.ar    1  UNL1        0.1653
     11 H         138.7035  141.5884  163.2209 H       1  UNL1        0.1437
     12 H         137.6504  140.2685  162.9823 H       1  UNL1        0.1437
     13 C         140.2727  143.1504  164.3535 C.ar    1  UNL1        0.0195
     14 C         139.3791  144.3356  164.1373 C.ar    1  UNL1        0.0016
     15 C         139.4539  145.1069  162.8530 C.ar    1  UNL1        0.0001
     16 C         140.4222  144.6929  161.7848 C.ar    1  UNL1        0.0030
     17 C         140.4969  145.4643  160.5004 C.ar    1  UNL1        0.0369
     18 C         141.4652  145.0503  159.4323 C.ar    1  UNL1        0.1384
     19 C         142.3588  143.8650  159.6484 C.ar    1  UNL1        0.0369
     20 C         142.2840  143.0938  160.9328 C.ar    1  UNL1        0.0031
     21 C         141.3157  143.5077  162.0009 C.ar    1  UNL1        0.0002
     22 C         141.2410  142.7365  163.2853 C.ar    1  UNL1        0.0016
     23 O         141.5399  145.8216  158.1479 O.3     1  UNL1       -0.4792
     24 C         140.3853  145.7981  157.1906 C.3     1  UNL1        0.1661
     25 C         139.4176  145.0287  156.3411 C.3     1  UNL1        0.0472
     26 C         139.3531  146.5267  156.3821 C.3     1  UNL1        0.0472
     27 C         141.0556  141.6234  169.3471 C.3     1  UNL1        0.1338
     28 C         142.9117  140.6504  169.0182 C.3     1  UNL1        0.0070
     29 C         142.4894  141.9435  169.6502 C.3     1  UNL1        0.0773
     30 C         142.0670  143.2366  170.2822 C.3     1  UNL1        0.1464
     31 O         143.5008  143.5567  170.5853 O.3     1  UNL1       -0.3535
     32 C         143.9231  142.2636  169.9533 C.3     1  UNL1        0.1464
@<TRIPOS>BOND
     1    28    29    1
     2    29    27    1
     3    27     1    1
     4     1     2   ar
     5     2     3   ar
     6     3    13    1
     7    13    14   ar
     8    14    15   ar
     9    15    16   ar
    10    16    17   ar
    11    17    18   ar
    12    18    23    1
    13    23    24    1
    14    24    25    1
    15    25    26    1
    16    18    19   ar
    17    19    20   ar
    18    20    21   ar
    19    21    22   ar
    20     3     4   ar
    21     4     5   ar
    22     5     6    1
    23     5     7   ar
    24     7     8   ar
    25     8     9   ar
    26     9    10   ar
    27    29    30    1
    28    30    31    1
    29    31    32    1
    30    32    29    1
    31    10     1   ar
    32    22    13   ar
    33    10     4   ar
    34    21    16   ar
    35    26    24    1
    36     6    11    1
    37     6    12    1
@<TRIPOS>MOLECULE
*****
 32 37 0 0 0
SMALL
GASTEIGER

@<TRIPOS>ATOM
      1 N         138.4630  142.9680  158.3531 N.ar    1  UNL1       -0.2338
      2 N         138.3304  142.6109  159.8039 N.ar    1  UNL1       -0.1679
      3 C         139.4245  143.3098  160.5552 C.ar    1  UNL1        0.1065
      4 C         140.2332  144.0990  159.5687 C.ar    1  UNL1        0.0860
      5 C         141.4340  144.9827  159.7340 C.ar    1  UNL1        0.1316
      6 N         142.0281  145.1939  161.0950 N.pl3   1  UNL1       -0.3425
      7 N         142.0406  145.6552  158.5382 N.ar    1  UNL1       -0.2093
      8 C         141.4464  145.4440  157.1772 C.ar    1  UNL1        0.2014
      9 N         140.2456  144.5602  157.0120 N.ar    1  UNL1       -0.2050
     10 C         139.6391  143.8878  158.2077 C.ar    1  UNL1        0.1653
     11 H         141.6300  144.7525  161.8798 H       1  UNL1        0.1437
     12 H         142.8162  145.7739  161.2034 H       1  UNL1        0.1437
     13 C         139.6672  143.2331  162.0335 C.ar    1  UNL1        0.0195
     14 C         138.8641  144.0856  162.9706 C.ar    1  UNL1        0.0016
     15 C         139.1068  144.0089  164.4488 C.ar    1  UNL1        0.0001
     16 C         140.1526  143.0796  164.9899 C.ar    1  UNL1        0.0030
     17 C         140.3953  143.0029  166.4682 C.ar    1  UNL1        0.0369
     18 C         141.4411  142.0736  167.0093 C.ar    1  UNL1        0.1384
     19 C         142.2442  141.2210  166.0721 C.ar    1  UNL1        0.0369
     20 C         142.0015  141.2978  164.5939 C.ar    1  UNL1        0.0031
     21 C         140.9557  142.2271  164.0528 C.ar    1  UNL1        0.0002
     22 C         140.7130  142.3038  162.5746 C.ar    1  UNL1        0.0016
     23 O         141.6838  141.9968  168.4875 O.3     1  UNL1       -0.4792
     24 C         140.8344  142.7975  169.4296 C.3     1  UNL1        0.1661
     25 C         140.4095  144.1232  169.9882 C.3     1  UNL1        0.0472
     26 C         139.7882  142.8586  170.5028 C.3     1  UNL1        0.0472
     27 C         137.5755  142.4895  157.2425 C.3     1  UNL1        0.1338
     28 C         137.9920  142.3966  155.1646 C.3     1  UNL1        0.0070
     29 C         138.0572  141.4232  156.3040 C.3     1  UNL1        0.0773
     30 C         138.1223  140.4498  157.4434 C.3     1  UNL1        0.1464
     31 O         138.6040  139.3834  156.5049 O.3     1  UNL1       -0.3535
     32 C         138.5388  140.3568  155.3655 C.3     1  UNL1        0.1464
@<TRIPOS>BOND
     1    28    29    1
     2    29    27    1
     3    27     1    1
     4     1     2   ar
     5     2     3   ar
     6     3    13    1
     7    13    14   ar
     8    14    15   ar
     9    15    16   ar
    10    16    17   ar
    11    17    18   ar
    12    18    23    1
    13    23    24    1
    14    24    25    1
    15    25    26    1
    16    18    19   ar
    17    19    20   ar
    18    20    21   ar
    19    21    22   ar
    20     3     4   ar
    21     4     5   ar
    22     5     6    1
    23     5     7   ar
    24     7     8   ar
    25     8     9   ar
    26     9    10   ar
    27    29    30    1
    28    30    31    1
    29    31    32    1
    30    32    29    1
    31    10     1   ar
    32    22    13   ar
    33    10     4   ar
    34    21    16   ar
    35    26    24    1
    36     6    11    1
    37     6    12    1
@<TRIPOS>MOLECULE
*****
 32 37 0 0 0
SMALL
GASTEIGER

@<TRIPOS>ATOM
      1 N         141.4238  140.5081  167.8989 N.ar    1  UNL1       -0.2338
      2 N         142.3350  140.5194  166.7075 N.ar    1  UNL1       -0.1679
      3 C         141.6117  139.8708  165.5646 C.ar    1  UNL1        0.1065
      4 C         140.2535  139.4587  166.0497 C.ar    1  UNL1        0.0860
      5 C         139.1075  138.7756  165.3641 C.ar    1  UNL1        0.1316
      6 N         139.2237  138.3817  163.9214 N.pl3   1  UNL1       -0.3425
      7 N         137.8452  138.4864  166.1212 N.ar    1  UNL1       -0.2093
      8 C         137.7290  138.8802  167.5639 C.ar    1  UNL1        0.2014
      9 N         138.8751  139.5633  168.2494 N.ar    1  UNL1       -0.2050
     10 C         140.1373  139.8525  167.4924 C.ar    1  UNL1        0.1653
     11 H         140.0521  138.5716  163.4245 H       1  UNL1        0.1437
     12 H         138.4715  137.9334  163.4714 H       1  UNL1        0.1437
     13 C         142.1519  139.6697  164.1797 C.ar    1  UNL1        0.0195
     14 C         142.6019  138.3078  163.7407 C.ar    1  UNL1        0.0016
     15 C         143.1420  138.1067  162.3559 C.ar    1  UNL1        0.0001
     16 C         143.2321  139.2675  161.4100 C.ar    1  UNL1        0.0030
     17 C         143.7722  139.0663  160.0251 C.ar    1  UNL1        0.0369
     18 C         143.8622  140.2271  159.0793 C.ar    1  UNL1        0.1384
     19 C         143.4121  141.5890  159.5184 C.ar    1  UNL1        0.0369
     20 C         142.8720  141.7901  160.9032 C.ar    1  UNL1        0.0031
     21 C         142.7820  140.6293  161.8491 C.ar    1  UNL1        0.0002
     22 C         142.2419  140.8304  163.2339 C.ar    1  UNL1        0.0016
     23 O         144.4023  140.0260  157.6945 O.3     1  UNL1       -0.4792
     24 C         144.9920  141.1832  156.9440 C.3     1  UNL1        0.1661
     25 C         146.1815  142.0138  156.5628 C.3     1  UNL1        0.0472
     26 C         144.8238  142.3570  156.0254 C.3     1  UNL1        0.0472
     27 C         141.7429  141.0562  169.2583 C.3     1  UNL1        0.1338
     28 C         140.5884  140.9898  171.0366 C.3     1  UNL1        0.0070
     29 C         140.7830  141.9892  169.9351 C.3     1  UNL1        0.0773
     30 C         140.9776  142.9885  168.8336 C.3     1  UNL1        0.1464
     31 O         140.0177  143.9215  169.5104 O.3     1  UNL1       -0.3535
     32 C         139.8231  142.9221  170.6119 C.3     1  UNL1        0.1464
@<TRIPOS>BOND
     1    28    29    1
     2    29    27    1
     3    27     1    1
     4     1     2   ar
     5     2     3   ar
     6     3    13    1
     7    13    14   ar
     8    14    15   ar
     9    15    16   ar
    10    16    17   ar
    11    17    18   ar
    12    18    23    1
    13    23    24    1
    14    24    25    1
    15    25    26    1
    16    18    19   ar
    17    19    20   ar
    18    20    21   ar
    19    21    22   ar
    20     3     4   ar
    21     4     5   ar
    22     5     6    1
    23     5     7   ar
    24     7     8   ar
    25     8     9   ar
    26     9    10   ar
    27    29    30    1
    28    30    31    1
    29    31    32    1
    30    32    29    1
    31    10     1   ar
    32    22    13   ar
    33    10     4   ar
    34    21    16   ar
    35    26    24    1
    36     6    11    1
    37     6    12    1
@<TRIPOS>MOLECULE
*****
 32 37 0 0 0
SMALL
GASTEIGER

@<TRIPOS>ATOM
      1 N         140.2867  142.3161  163.5527 N.ar    1  UNL1       -0.2338
      2 N         140.9431  141.8815  162.2760 N.ar    1  UNL1       -0.1679
      3 C         140.7107  140.4086  162.1133 C.ar    1  UNL1        0.1065
      4 C         139.9106  139.9329  163.2895 C.ar    1  UNL1        0.0860
      5 C         139.3868  138.5785  163.6653 C.ar    1  UNL1        0.1316
      6 N         139.6489  137.3996  162.7757 N.pl3   1  UNL1       -0.3425
      7 N         138.6009  138.4030  164.9309 N.ar    1  UNL1       -0.2093
      8 C         138.3388  139.5819  165.8205 C.ar    1  UNL1        0.2014
      9 N         138.8626  140.9363  165.4446 N.ar    1  UNL1       -0.2050
     10 C         139.6485  141.1117  164.1791 C.ar    1  UNL1        0.1653
     11 H         140.1647  137.5148  161.9451 H       1  UNL1        0.1437
     12 H         139.3052  136.5107  163.0224 H       1  UNL1        0.1437
     13 C         141.1937  139.5603  160.9743 C.ar    1  UNL1        0.0195
     14 C         142.5836  138.9969  160.9955 C.ar    1  UNL1        0.0016
     15 C         143.0665  138.1486  159.8566 C.ar    1  UNL1        0.0001
     16 C         142.1594  137.8638  158.6964 C.ar    1  UNL1        0.0030
     17 C         142.6424  137.0155  157.5574 C.ar    1  UNL1        0.0369
     18 C         141.7353  136.7306  156.3972 C.ar    1  UNL1        0.1384
     19 C         140.3452  137.2941  156.3760 C.ar    1  UNL1        0.0369
     20 C         139.8624  138.1423  157.5150 C.ar    1  UNL1        0.0031
     21 C         140.7695  138.4272  158.6751 C.ar    1  UNL1        0.0002
     22 C         140.2866  139.2754  159.8141 C.ar    1  UNL1        0.0016
     23 O         142.2181  135.8823  155.2583 O.3     1  UNL1       -0.4792
     24 C         142.5214  134.4302  155.4806 C.3     1  UNL1        0.1661
     25 C         143.5173  133.3286  155.6916 C.3     1  UNL1        0.0472
     26 C         142.0506  133.0167  155.6546 C.3     1  UNL1        0.0472
     27 C         140.2710  143.7103  164.1060 C.3     1  UNL1        0.1338
     28 C         141.6203  145.2399  163.5232 C.3     1  UNL1        0.0070
     29 C         140.2047  144.8855  163.1762 C.3     1  UNL1        0.0773
     30 C         138.7891  144.5310  162.8292 C.3     1  UNL1        0.1464
     31 O         138.7228  145.7061  161.8994 O.3     1  UNL1       -0.3535
     32 C         140.1383  146.0606  162.2464 C.3     1  UNL1        0.1464
@<TRIPOS>BOND
     1    28    29    1
     2    29    27    1
     3    27     1    1
     4     1     2   ar
     5     2     3   ar
     6     3    13    1
     7    13    14   ar
     8    14    15   ar
     9    15    16   ar
    10    16    17   ar
    11    17    18   ar
    12    18    23    1
    13    23    24    1
    14    24    25    1
    15    25    26    1
    16    18    19   ar
    17    19    20   ar
    18    20    21   ar
    19    21    22   ar
    20     3     4   ar
    21     4     5   ar
    22     5     6    1
    23     5     7   ar
    24     7     8   ar
    25     8     9   ar
    26     9    10   ar
    27    29    30    1
    28    30    31    1
    29    31    32    1
    30    32    29    1
    31    10     1   ar
    32    22    13   ar
    33    10     4   ar
    34    21    16   ar
    35    26    24    1
    36     6    11    1
    37     6    12    1
@<TRIPOS>MOLECULE
*****
 32 37 0 0 0
SMALL
GASTEIGER

@<TRIPOS>ATOM
      1 N         139.2094  139.6642  158.2137 N.ar    1  UNL1       -0.2338
      2 N         138.6327  139.7801  159.5935 N.ar    1  UNL1       -0.1679
      3 C         139.6066  139.1675  160.5559 C.ar    1  UNL1        0.1065
      4 C         140.7852  138.6729  159.7708 C.ar    1  UNL1        0.0860
      5 C         142.0502  137.9827  160.1871 C.ar    1  UNL1        0.1316
      6 N         142.2956  137.6757  161.6347 N.pl3   1  UNL1       -0.3425
      7 N         143.0698  137.5995  159.1558 N.ar    1  UNL1       -0.2093
      8 C         142.8244  137.9065  157.7082 C.ar    1  UNL1        0.2014
      9 N         141.5593  138.5968  157.2920 N.ar    1  UNL1       -0.2050
     10 C         140.5397  138.9799  158.3232 C.ar    1  UNL1        0.1653
     11 H         141.6264  137.9272  162.3115 H       1  UNL1        0.1437
     12 H         143.1259  137.2227  161.9079 H       1  UNL1        0.1437
     13 C         139.4324  139.0670  162.0424 C.ar    1  UNL1        0.0195
     14 C         138.8498  137.8240  162.6469 C.ar    1  UNL1        0.0016
     15 C         138.6757  137.7235  164.1334 C.ar    1  UNL1        0.0001
     16 C         139.0842  138.8660  165.0153 C.ar    1  UNL1        0.0030
     17 C         138.9101  138.7655  166.5018 C.ar    1  UNL1        0.0369
     18 C         139.3187  139.9080  167.3837 C.ar    1  UNL1        0.1384
     19 C         139.9014  141.1510  166.7791 C.ar    1  UNL1        0.0369
     20 C         140.0755  141.2515  165.2927 C.ar    1  UNL1        0.0031
     21 C         139.6669  140.1090  164.4108 C.ar    1  UNL1        0.0002
     22 C         139.8410  140.2095  162.9243 C.ar    1  UNL1        0.0016
     23 O         139.1446  139.8076  168.8701 O.3     1  UNL1       -0.4792
     24 C         139.7326  140.8566  169.7668 C.3     1  UNL1        0.1661
     25 C         139.7337  142.2592  170.2984 C.3     1  UNL1        0.0472
     26 C         140.7501  141.2708  170.7881 C.3     1  UNL1        0.0472
     27 C         138.5683  140.1478  156.9467 C.3     1  UNL1        0.1338
     28 C         136.6311  140.9975  156.7883 C.3     1  UNL1        0.0070
     29 C         138.0259  141.5439  156.8660 C.3     1  UNL1        0.0773
     30 C         139.4207  142.0903  156.9437 C.3     1  UNL1        0.1464
     31 O         138.8783  143.4864  156.8630 O.3     1  UNL1       -0.3535
     32 C         137.4835  142.9400  156.7853 C.3     1  UNL1        0.1464
@<TRIPOS>BOND
     1    28    29    1
     2    29    27    1
     3    27     1    1
     4     1     2   ar
     5     2     3   ar
     6     3    13    1
     7    13    14   ar
     8    14    15   ar
     9    15    16   ar
    10    16    17   ar
    11    17    18   ar
    12    18    23    1
    13    23    24    1
    14    24    25    1
    15    25    26    1
    16    18    19   ar
    17    19    20   ar
    18    20    21   ar
    19    21    22   ar
    20     3     4   ar
    21     4     5   ar
    22     5     6    1
    23     5     7   ar
    24     7     8   ar
    25     8     9   ar
    26     9    10   ar
    27    29    30    1
    28    30    31    1
    29    31    32    1
    30    32    29    1
    31    10     1   ar
    32    22    13   ar
    33    10     4   ar
    34    21    16   ar
    35    26    24    1
    36     6    11    1
    37     6    12    1
@<TRIPOS>MOLECULE
*****
 32 37 0 0 0
SMALL
GASTEIGER

@<TRIPOS>ATOM
      1 N         142.6324  136.3477  156.7108 N.ar    1  UNL1       -0.2338
      2 N         143.3025  136.6858  158.0096 N.ar    1  UNL1       -0.1679
      3 C         142.4514  137.6954  158.7212 C.ar    1  UNL1        0.1065
      4 C         141.2554  137.9813  157.8622 C.ar    1  UNL1        0.0860
      5 C         140.0789  138.8925  158.0509 C.ar    1  UNL1        0.1316
      6 N         139.9670  139.7253  159.2934 N.pl3   1  UNL1       -0.3425
      7 N         139.0143  138.9707  156.9971 N.ar    1  UNL1       -0.2093
      8 C         139.1261  138.1379  155.7547 C.ar    1  UNL1        0.2014
      9 N         140.3027  137.2267  155.5660 N.ar    1  UNL1       -0.2050
     10 C         141.3672  137.1484  156.6197 C.ar    1  UNL1        0.1653
     11 H         140.6658  139.6739  159.9850 H       1  UNL1        0.1437
     12 H         139.1949  140.3234  159.4173 H       1  UNL1        0.1437
     13 C         142.7448  138.3110  160.0573 C.ar    1  UNL1        0.0195
     14 C         143.6821  139.4779  160.1558 C.ar    1  UNL1        0.0016
     15 C         143.9755  140.0935  161.4918 C.ar    1  UNL1        0.0001
     16 C         143.3315  139.5422  162.7293 C.ar    1  UNL1        0.0030
     17 C         143.6249  140.1578  164.0653 C.ar    1  UNL1        0.0369
     18 C         142.9810  139.6065  165.3028 C.ar    1  UNL1        0.1384
     19 C         142.0436  138.4396  165.2042 C.ar    1  UNL1        0.0369
     20 C         141.7502  137.8240  163.8682 C.ar    1  UNL1        0.0031
     21 C         142.3942  138.3753  162.6308 C.ar    1  UNL1        0.0002
     22 C         142.1008  137.7597  161.2947 C.ar    1  UNL1        0.0016
     23 O         143.2743  140.2221  166.6388 O.3     1  UNL1       -0.4792
     24 C         142.3662  139.9562  167.8028 C.3     1  UNL1        0.1661
     25 C         140.9961  139.9779  168.4130 C.3     1  UNL1        0.0472
     26 C         142.1636  139.4741  169.2086 C.3     1  UNL1        0.0472
     27 C         143.1387  135.3790  155.6835 C.3     1  UNL1        0.1338
     28 C         142.0023  134.4243  154.1679 C.3     1  UNL1        0.0070
     29 C         142.4871  134.0363  155.5334 C.3     1  UNL1        0.0773
     30 C         142.9719  133.6484  156.8988 C.3     1  UNL1        0.1464
     31 O         142.3203  132.3057  156.7486 O.3     1  UNL1       -0.3535
     32 C         141.8355  132.6937  155.3832 C.3     1  UNL1        0.1464
@<TRIPOS>BOND
     1    28    29    1
     2    29    27    1
     3    27     1    1
     4     1     2   ar
     5     2     3   ar
     6     3    13    1
     7    13    14   ar
     8    14    15   ar
     9    15    16   ar
    10    16    17   ar
    11    17    18   ar
    12    18    23    1
    13    23    24    1
    14    24    25    1
    15    25    26    1
    16    18    19   ar
    17    19    20   ar
    18    20    21   ar
    19    21    22   ar
    20     3     4   ar
    21     4     5   ar
    22     5     6    1
    23     5     7   ar
    24     7     8   ar
    25     8     9   ar
    26     9    10   ar
    27    29    30    1
    28    30    31    1
    29    31    32    1
    30    32    29    1
    31    10     1   ar
    32    22    13   ar
    33    10     4   ar
    34    21    16   ar
    35    26    24    1
    36     6    11    1
    37     6    12    1
@<TRIPOS>MOLECULE
*****
 32 37 0 0 0
SMALL
GASTEIGER

@<TRIPOS>ATOM
      1 N         141.3458  140.9786  164.0202 N.ar    1  UNL1       -0.2338
      2 N         140.8391  141.4407  162.6861 N.ar    1  UNL1       -0.1679
      3 C         141.5708  142.6987  162.3228 C.ar    1  UNL1        0.1065
      4 C         142.5297  143.0141  163.4323 C.ar    1  UNL1        0.0860
      5 C         143.5115  144.1320  163.6228 C.ar    1  UNL1        0.1316
      6 N         143.6505  145.1951  162.5737 N.pl3   1  UNL1       -0.3425
      7 N         144.3543  144.1869  164.8624 N.ar    1  UNL1       -0.2093
      8 C         144.2153  143.1238  165.9115 C.ar    1  UNL1        0.2014
      9 N         143.2334  142.0059  165.7209 N.ar    1  UNL1       -0.2050
     10 C         142.3907  141.9511  164.4814 C.ar    1  UNL1        0.1653
     11 H         143.0974  145.1591  161.7601 H       1  UNL1        0.1437
     12 H         144.2949  145.9288  162.6988 H       1  UNL1        0.1437
     13 C         141.3775  143.5006  161.0698 C.ar    1  UNL1        0.0195
     14 C         140.4668  144.6924  161.0752 C.ar    1  UNL1        0.0016
     15 C         140.2735  145.4942  159.8223 C.ar    1  UNL1        0.0001
     16 C         140.9910  145.1041  158.5641 C.ar    1  UNL1        0.0030
     17 C         140.7977  145.9060  157.3112 C.ar    1  UNL1        0.0369
     18 C         141.5152  145.5159  156.0529 C.ar    1  UNL1        0.1384
     19 C         142.4260  144.3240  156.0477 C.ar    1  UNL1        0.0369
     20 C         142.6192  143.5222  157.3006 C.ar    1  UNL1        0.0031
     21 C         141.9017  143.9123  158.5588 C.ar    1  UNL1        0.0002
     22 C         142.0950  143.1105  159.8116 C.ar    1  UNL1        0.0016
     23 O         141.3220  146.3177  154.8001 O.3     1  UNL1       -0.4792
     24 C         140.2514  147.3666  154.7385 C.3     1  UNL1        0.1661
     25 C         139.8050  148.7463  154.3549 C.3     1  UNL1        0.0472
     26 C         138.8434  147.8035  155.0154 C.3     1  UNL1        0.0472
     27 C         140.8880  139.7584  164.7628 C.3     1  UNL1        0.1338
     28 C         138.8700  139.1634  164.4918 C.3     1  UNL1        0.0070
     29 C         140.1995  138.6471  164.0272 C.3     1  UNL1        0.0773
     30 C         141.5290  138.1309  163.5627 C.3     1  UNL1        0.1464
     31 O         140.8405  137.0196  162.8271 O.3     1  UNL1       -0.3535
     32 C         139.5110  137.5359  163.2917 C.3     1  UNL1        0.1464
@<TRIPOS>BOND
     1    28    29    1
     2    29    27    1
     3    27     1    1
     4     1     2   ar
     5     2     3   ar
     6     3    13    1
     7    13    14   ar
     8    14    15   ar
     9    15    16   ar
    10    16    17   ar
    11    17    18   ar
    12    18    23    1
    13    23    24    1
    14    24    25    1
    15    25    26    1
    16    18    19   ar
    17    19    20   ar
    18    20    21   ar
    19    21    22   ar
    20     3     4   ar
    21     4     5   ar
    22     5     6    1
    23     5     7   ar
    24     7     8   ar
    25     8     9   ar
    26     9    10   ar
    27    29    30    1
    28    30    31    1
    29    31    32    1
    30    32    29    1
    31    10     1   ar
    32    22    13   ar
    33    10     4   ar
    34    21    16   ar
    35    26    24    1
    36     6    11    1
    37     6    12    1
@<TRIPOS>MOLECULE
*****
 32 37 0 0 0
SMALL
GASTEIGER

@<TRIPOS>ATOM
      1 N         139.7254  138.7397  158.7132 N.ar    1  UNL1       -0.2338
      2 N         140.0764  138.4349  160.1393 N.ar    1  UNL1       -0.1679
      3 C         139.7645  139.6489  160.9632 C.ar    1  UNL1        0.1065
      4 C         139.2207  140.7041  160.0462 C.ar    1  UNL1        0.0860
      5 C         138.7444  142.1041  160.2978 C.ar    1  UNL1        0.1316
      6 N         138.7686  142.6659  161.6884 N.pl3   1  UNL1       -0.3425
      7 N         138.2439  142.9421  159.1589 N.ar    1  UNL1       -0.2093
      8 C         138.2196  142.3802  157.7683 C.ar    1  UNL1        0.2014
      9 N         138.6960  140.9802  157.5168 N.ar    1  UNL1       -0.2050
     10 C         139.1965  140.1422  158.6556 C.ar    1  UNL1        0.1653
     11 H         139.0971  142.1159  162.4359 H       1  UNL1        0.1437
     12 H         138.4560  143.5848  161.8535 H       1  UNL1        0.1437
     13 C         139.9618  139.7841  162.4440 C.ar    1  UNL1        0.0195
     14 C         141.2278  140.3837  162.9803 C.ar    1  UNL1        0.0016
     15 C         141.4250  140.5189  164.4611 C.ar    1  UNL1        0.0001
     16 C         140.3563  140.0544  165.4056 C.ar    1  UNL1        0.0030
     17 C         140.5536  140.1896  166.8865 C.ar    1  UNL1        0.0369
     18 C         139.4848  139.7251  167.8310 C.ar    1  UNL1        0.1384
     19 C         138.2188  139.1255  167.2946 C.ar    1  UNL1        0.0369
     20 C         138.0215  138.9903  165.8138 C.ar    1  UNL1        0.0031
     21 C         139.0903  139.4548  164.8693 C.ar    1  UNL1        0.0002
     22 C         138.8930  139.3196  163.3885 C.ar    1  UNL1        0.0016
     23 O         139.6820  139.8603  169.3117 O.3     1  UNL1       -0.4792
     24 C         141.0663  139.8374  169.8892 C.3     1  UNL1        0.1661
     25 C         142.1238  140.4579  170.7534 C.3     1  UNL1        0.0472
     26 C         142.4063  139.1774  170.0252 C.3     1  UNL1        0.0472
     27 C         139.8766  137.8060  157.5490 C.3     1  UNL1        0.1338
     28 C         141.9699  138.1034  157.3764 C.3     1  UNL1        0.0070
     29 C         140.8098  138.1516  156.4267 C.3     1  UNL1        0.0773
     30 C         139.6498  138.1999  155.4770 C.3     1  UNL1        0.1464
     31 O         140.5830  138.5455  154.3547 O.3     1  UNL1       -0.3535
     32 C         141.7431  138.4973  155.3044 C.3     1  UNL1        0.1464
@<TRIPOS>BOND
     1    28    29    1
     2    29    27    1
     3    27     1    1
     4     1     2   ar
     5     2     3   ar
     6     3    13    1
     7    13    14   ar
     8    14    15   ar
     9    15    16   ar
    10    16    17   ar
    11    17    18   ar
    12    18    23    1
    13    23    24    1
    14    24    25    1
    15    25    26    1
    16    18    19   ar
    17    19    20   ar
    18    20    21   ar
    19    21    22   ar
    20     3     4   ar
    21     4     5   ar
    22     5     6    1
    23     5     7   ar
    24     7     8   ar
    25     8     9   ar
    26     9    10   ar
    27    29    30    1
    28    30    31    1
    29    31    32    1
    30    32    29    1
    31    10     1   ar
    32    22    13   ar
    33    10     4   ar
    34    21    16   ar
    35    26    24    1
    36     6    11    1
    37     6    12    1
@<TRIPOS>MOLECULE
*****
 32 37 0 0 0
SMALL
GASTEIGER

@<TRIPOS>ATOM
      1 N         138.5978  143.0273  157.2152 N.ar    1  UNL1       -0.2338
      2 N         138.0982  142.2987  158.4274 N.ar    1  UNL1       -0.1679
      3 C         138.9107  142.7476  159.6057 C.ar    1  UNL1        0.1065
      4 C         139.9125  143.7537  159.1216 C.ar    1  UNL1        0.0860
      5 C         140.9758  144.5347  159.8353 C.ar    1  UNL1        0.1316
      6 N         141.1691  144.3618  161.3127 N.pl3   1  UNL1       -0.3425
      7 N         141.8457  145.4886  159.0716 N.ar    1  UNL1       -0.2093
      8 C         141.6524  145.6615  157.5942 C.ar    1  UNL1        0.2014
      9 N         140.5890  144.8804  156.8806 N.ar    1  UNL1       -0.2050
     10 C         139.7191  143.9266  157.6442 C.ar    1  UNL1        0.1653
     11 H         140.5981  143.7358  161.8139 H       1  UNL1        0.1437
     12 H         141.8670  144.8745  161.7811 H       1  UNL1        0.1437
     13 C         138.7497  142.2737  161.0197 C.ar    1  UNL1        0.0195
     14 C         137.8710  143.0323  161.9696 C.ar    1  UNL1        0.0016
     15 C         137.7100  142.5584  163.3835 C.ar    1  UNL1        0.0001
     16 C         138.4278  141.3258  163.8477 C.ar    1  UNL1        0.0030
     17 C         138.2668  140.8518  165.2618 C.ar    1  UNL1        0.0369
     18 C         138.9846  139.6193  165.7260 C.ar    1  UNL1        0.1384
     19 C         139.8634  138.8606  164.7761 C.ar    1  UNL1        0.0369
     20 C         140.0244  139.3345  163.3621 C.ar    1  UNL1        0.0031
     21 C         139.3066  140.5671  162.8979 C.ar    1  UNL1        0.0002
     22 C         139.4675  141.0411  161.4839 C.ar    1  UNL1        0.0016
     23 O         138.8237  139.1453  167.1400 O.3     1  UNL1       -0.4792
     24 C         139.3557  139.9717  168.2732 C.3     1  UNL1        0.1661
     25 C         139.2484  140.4592  169.6877 C.3     1  UNL1        0.0472
     26 C         140.3846  140.9156  168.8213 C.3     1  UNL1        0.0472
     27 C         138.0690  142.8821  155.8190 C.3     1  UNL1        0.1338
     28 C         136.1510  142.0452  155.4715 C.3     1  UNL1        0.0070
     29 C         137.5621  141.5529  155.3434 C.3     1  UNL1        0.0773
     30 C         138.9732  141.0606  155.2153 C.3     1  UNL1        0.1464
     31 O         138.4663  139.7314  154.7397 O.3     1  UNL1       -0.3535
     32 C         137.0552  140.2237  154.8678 C.3     1  UNL1        0.1464
@<TRIPOS>BOND
     1    28    29    1
     2    29    27    1
     3    27     1    1
     4     1     2   ar
     5     2     3   ar
     6     3    13    1
     7    13    14   ar
     8    14    15   ar
     9    15    16   ar
    10    16    17   ar
    11    17    18   ar
    12    18    23    1
    13    23    24    1
    14    24    25    1
    15    25    26    1
    16    18    19   ar
    17    19    20   ar
    18    20    21   ar
    19    21    22   ar
    20     3     4   ar
    21     4     5   ar
    22     5     6    1
    23     5     7   ar
    24     7     8   ar
    25     8     9   ar
    26     9    10   ar
    27    29    30    1
    28    30    31    1
    29    31    32    1
    30    32    29    1
    31    10     1   ar
    32    22    13   ar
    33    10     4   ar
    34    21    16   ar
    35    26    24    1
    36     6    11    1
    37     6    12    1
