@<TRIPOS>MOLECULE
*****
 35 39 0 0 0
SMALL
GASTEIGER

@<TRIPOS>ATOM
      1 C         143.1682  141.6447  160.5023 C.3     1  UNL1        0.0730
      2 N         142.4848  142.5963  161.4391 N.3     1  UNL1       -0.2726
      3 C         142.6182  144.0904  161.4304 C.3     1  UNL1        0.0721
      4 C         141.7640  144.6383  162.5350 C.3     1  UNL1        0.0190
      5 C         141.1027  143.4830  163.2262 C.3     1  UNL1        0.0201
      6 C         140.3540  144.3085  164.2301 C.3     1  UNL1        0.0061
      7 C         140.2206  142.8145  164.2388 C.3     1  UNL1        0.0237
      8 C         141.5482  142.2209  162.5489 C.3     1  UNL1        0.0724
      9 C         139.6344  141.5660  164.8283 C.ar    1  UNL1       -0.0225
     10 C         139.0222  140.5297  163.9332 C.ar    1  UNL1       -0.0043
     11 C         138.4360  139.2812  164.5227 C.ar    1  UNL1        0.0035
     12 C         138.4619  139.0690  166.0074 C.ar    1  UNL1        0.0714
     13 C         139.0741  140.1054  166.9025 C.ar    1  UNL1        0.0035
     14 C         139.6603  141.3539  166.3130 C.ar    1  UNL1       -0.0043
     15 C         137.8757  137.8205  166.5969 C.3     1  UNL1        0.4186
     16 F         137.2894  136.5720  167.1865 F       1  UNL1       -0.1659
     17 F         138.4641  137.0152  165.4765 F       1  UNL1       -0.1659
     18 F         137.2873  138.6259  167.7173 F       1  UNL1       -0.1659
     19 C         142.6661  140.2380  160.3641 C.3     1  UNL1        0.0294
     20 C         143.6380  139.1078  160.1961 C.3     1  UNL1        0.0666
     21 S         143.8864  138.1574  161.3296 S.3     1  UNL1       -0.0756
     22 C         144.8318  140.4133  163.4899 C.3     1  UNL1        0.1340
     23 N         143.6977  139.4470  163.6633 N.ar    1  UNL1       -0.2884
     24 C         143.2632  138.4101  162.6704 C.ar    1  UNL1        0.1932
     25 N         142.0959  137.6702  163.2536 N.ar    1  UNL1       -0.1221
     26 N         141.8090  138.2499  164.6070 N.ar    1  UNL1       -0.1282
     27 C         142.7990  139.3480  164.8603 C.ar    1  UNL1        0.1668
     28 C         142.8766  140.1979  166.0939 C.ar    1  UNL1        0.0360
     29 C         143.1886  141.6605  165.9786 C.ar    1  UNL1        0.0037
     30 C         143.2662  142.5104  167.2122 C.ar    1  UNL1        0.0104
     31 C         143.0319  141.8974  168.5611 C.ar    1  UNL1        0.0685
     32 C         142.7199  140.4348  168.6764 C.ar    1  UNL1        0.0104
     33 C         142.6423  139.5850  167.4427 C.ar    1  UNL1        0.0037
     34 C         143.1095  142.7473  169.7947 C.1     1  UNL1        0.1004
     35 N         143.1871  143.5971  171.0283 N.1     1  UNL1       -0.1908
@<TRIPOS>BOND
     1    22    23    1
     2    23    24   ar
     3    24    21    1
     4    21    20    1
     5    20    19    1
     6    19     1    1
     7     1     2    1
     8     2     3    1
     9     3     4    1
    10     5     4    1
    11     5     6    1
    12     6     7    1
    13     7     9    1
    14     9    10   ar
    15    10    11   ar
    16    11    12   ar
    17    12    15    1
    18    15    16    1
    19    15    17    1
    20    15    18    1
    21    12    13   ar
    22    13    14   ar
    23     5     8    1
    24    24    25   ar
    25    25    26   ar
    26    26    27   ar
    27    27    28    1
    28    28    29   ar
    29    29    30   ar
    30    30    31   ar
    31    31    34    1
    32    34    35    3
    33    31    32   ar
    34    32    33   ar
    35    27    23   ar
    36    33    28   ar
    37     8     2    1
    38     7     5    1
    39    14     9   ar
@<TRIPOS>MOLECULE
*****
 35 39 0 0 0
SMALL
GASTEIGER

@<TRIPOS>ATOM
      1 C         142.8466  142.8375  160.7986 C.3     1  UNL1        0.0730
      2 N         141.9720  143.5970  161.7516 N.3     1  UNL1       -0.2726
      3 C         141.8538  145.0896  161.8412 C.3     1  UNL1        0.0721
      4 C         140.8708  145.4123  162.9273 C.3     1  UNL1        0.0190
      5 C         140.3816  144.1191  163.5090 C.3     1  UNL1        0.0201
      6 C         139.4606  144.7392  164.5176 C.3     1  UNL1        0.0061
      7 C         139.5789  143.2466  164.4280 C.3     1  UNL1        0.0237
      8 C         141.0622  142.9971  162.7823 C.3     1  UNL1        0.0724
      9 C         139.1838  141.8811  164.9068 C.ar    1  UNL1       -0.0225
     10 C         138.3882  140.9747  164.0149 C.ar    1  UNL1       -0.0043
     11 C         137.9930  139.6092  164.4937 C.ar    1  UNL1        0.0035
     12 C         138.3935  139.1501  165.8644 C.ar    1  UNL1        0.0714
     13 C         139.1891  140.0565  166.7563 C.ar    1  UNL1        0.0035
     14 C         139.5843  141.4220  166.2775 C.ar    1  UNL1       -0.0043
     15 C         137.9984  137.7846  166.3432 C.3     1  UNL1        0.4186
     16 F         137.6033  136.4190  166.8220 F       1  UNL1       -0.1659
     17 F         137.2768  138.4007  167.5049 F       1  UNL1       -0.1659
     18 F         138.7201  137.1684  165.1815 F       1  UNL1       -0.1659
     19 C         142.3796  141.5295  160.2320 C.3     1  UNL1        0.0294
     20 C         143.3589  140.4144  160.0132 C.3     1  UNL1        0.0666
     21 S         143.6934  139.4788  161.1369 S.3     1  UNL1       -0.0756
     22 C         141.7147  139.3155  163.7268 C.3     1  UNL1        0.1340
     23 N         143.0746  139.9476  163.6947 N.ar    1  UNL1       -0.2884
     24 C         143.9841  140.0226  162.5042 C.ar    1  UNL1        0.1932
     25 N         145.2355  140.7370  162.9212 N.ar    1  UNL1       -0.1221
     26 N         145.0993  141.1035  164.3693 N.ar    1  UNL1       -0.1282
     27 C         143.7639  140.6156  164.8475 C.ar    1  UNL1        0.1668
     28 C         143.2142  140.7688  166.2347 C.ar    1  UNL1        0.0360
     29 C         142.8412  139.5543  167.0320 C.ar    1  UNL1        0.0037
     30 C         142.2916  139.7075  168.4193 C.ar    1  UNL1        0.0104
     31 C         142.1148  141.0754  169.0091 C.ar    1  UNL1        0.0685
     32 C         142.4878  142.2899  168.2117 C.ar    1  UNL1        0.0104
     33 C         143.0375  142.1366  166.8245 C.ar    1  UNL1        0.0037
     34 C         141.5652  141.2286  170.3963 C.1     1  UNL1        0.1004
     35 N         141.0155  141.3818  171.7835 N.1     1  UNL1       -0.1908
@<TRIPOS>BOND
     1    22    23    1
     2    23    24   ar
     3    24    21    1
     4    21    20    1
     5    20    19    1
     6    19     1    1
     7     1     2    1
     8     2     3    1
     9     3     4    1
    10     5     4    1
    11     5     6    1
    12     6     7    1
    13     7     9    1
    14     9    10   ar
    15    10    11   ar
    16    11    12   ar
    17    12    15    1
    18    15    16    1
    19    15    17    1
    20    15    18    1
    21    12    13   ar
    22    13    14   ar
    23     5     8    1
    24    24    25   ar
    25    25    26   ar
    26    26    27   ar
    27    27    28    1
    28    28    29   ar
    29    29    30   ar
    30    30    31   ar
    31    31    34    1
    32    34    35    3
    33    31    32   ar
    34    32    33   ar
    35    27    23   ar
    36    33    28   ar
    37     8     2    1
    38     7     5    1
    39    14     9   ar
@<TRIPOS>MOLECULE
*****
 35 39 0 0 0
SMALL
GASTEIGER

@<TRIPOS>ATOM
      1 C         143.5943  144.7079  162.5968 C.3     1  UNL1        0.0730
      2 N         142.2031  144.6331  163.1526 N.3     1  UNL1       -0.2726
      3 C         140.9800  145.2636  162.5556 C.3     1  UNL1        0.0721
      4 C         139.8117  144.9347  163.4370 C.3     1  UNL1        0.0190
      5 C         140.3128  144.1009  164.5789 C.3     1  UNL1        0.0201
      6 C         138.9816  143.9393  165.2510 C.3     1  UNL1        0.0061
      7 C         140.2046  143.3088  165.8481 C.3     1  UNL1        0.0237
      8 C         141.7907  143.9145  164.4031 C.3     1  UNL1        0.0724
      9 C         140.8484  142.4874  166.9255 C.ar    1  UNL1       -0.0225
     10 C         140.7869  142.9427  168.3534 C.ar    1  UNL1       -0.0043
     11 C         141.4307  142.1214  169.4309 C.ar    1  UNL1        0.0035
     12 C         142.1358  140.8447  169.0804 C.ar    1  UNL1        0.0714
     13 C         142.1972  140.3893  167.6525 C.ar    1  UNL1        0.0035
     14 C         141.5535  141.2107  166.5750 C.ar    1  UNL1       -0.0043
     15 C         142.7795  140.0233  170.1579 C.3     1  UNL1        0.4186
     16 F         143.4233  139.2019  171.2354 F       1  UNL1       -0.1659
     17 F         141.6762  139.0132  170.0471 F       1  UNL1       -0.1659
     18 F         143.8829  141.0334  170.2687 F       1  UNL1       -0.1659
     19 C         144.3704  143.4491  162.3459 C.3     1  UNL1        0.0294
     20 C         144.5356  142.9362  160.9460 C.3     1  UNL1        0.0666
     21 S         144.0232  141.5746  160.5808 S.3     1  UNL1       -0.0756
     22 C         143.1746  140.4326  163.5177 C.3     1  UNL1        0.1340
     23 N         142.2552  140.6299  162.3491 N.ar    1  UNL1       -0.2884
     24 C         142.6452  141.1548  160.9992 C.ar    1  UNL1        0.1932
     25 N         141.4153  141.1863  160.1410 N.ar    1  UNL1       -0.1221
     26 N         140.2652  140.6808  160.9606 N.ar    1  UNL1       -0.1282
     27 C         140.7842  140.3369  162.3253 C.ar    1  UNL1        0.1668
     28 C         139.9745  139.7952  163.4659 C.ar    1  UNL1        0.0360
     29 C         140.2580  138.4233  164.0019 C.ar    1  UNL1        0.0037
     30 C         139.4482  137.8816  165.1425 C.ar    1  UNL1        0.0104
     31 C         138.3549  138.7120  165.7470 C.ar    1  UNL1        0.0685
     32 C         138.0714  140.0839  165.2109 C.ar    1  UNL1        0.0104
     33 C         138.8812  140.6256  164.0703 C.ar    1  UNL1        0.0037
     34 C         137.5452  138.1703  166.8875 C.1     1  UNL1        0.1004
     35 N         136.7355  137.6286  168.0281 N.1     1  UNL1       -0.1908
@<TRIPOS>BOND
     1    22    23    1
     2    23    24   ar
     3    24    21    1
     4    21    20    1
     5    20    19    1
     6    19     1    1
     7     1     2    1
     8     2     3    1
     9     3     4    1
    10     5     4    1
    11     5     6    1
    12     6     7    1
    13     7     9    1
    14     9    10   ar
    15    10    11   ar
    16    11    12   ar
    17    12    15    1
    18    15    16    1
    19    15    17    1
    20    15    18    1
    21    12    13   ar
    22    13    14   ar
    23     5     8    1
    24    24    25   ar
    25    25    26   ar
    26    26    27   ar
    27    27    28    1
    28    28    29   ar
    29    29    30   ar
    30    30    31   ar
    31    31    34    1
    32    34    35    3
    33    31    32   ar
    34    32    33   ar
    35    27    23   ar
    36    33    28   ar
    37     8     2    1
    38     7     5    1
    39    14     9   ar
@<TRIPOS>MOLECULE
*****
 35 39 0 0 0
SMALL
GASTEIGER

@<TRIPOS>ATOM
      1 C         143.9770  142.9558  162.2191 C.3     1  UNL1        0.0730
      2 N         143.9833  141.6291  162.9190 N.3     1  UNL1       -0.2726
      3 C         144.5922  140.3608  162.3990 C.3     1  UNL1        0.0721
      4 C         144.3670  139.2857  163.4204 C.3     1  UNL1        0.0190
      5 C         143.6189  139.8896  164.5718 C.3     1  UNL1        0.0201
      6 C         143.5469  138.6333  165.3883 C.3     1  UNL1        0.0061
      7 C         142.9380  139.9017  165.9083 C.3     1  UNL1        0.0237
      8 C         143.3817  141.3379  164.2619 C.3     1  UNL1        0.0724
      9 C         142.1933  140.6409  166.9802 C.ar    1  UNL1       -0.0225
     10 C         140.8079  140.2120  167.3632 C.ar    1  UNL1       -0.0043
     11 C         140.0632  140.9512  168.4350 C.ar    1  UNL1        0.0035
     12 C         140.7040  142.1195  169.1240 C.ar    1  UNL1        0.0714
     13 C         142.0894  142.5485  168.7410 C.ar    1  UNL1        0.0035
     14 C         142.8341  141.8092  167.6691 C.ar    1  UNL1       -0.0043
     15 C         139.9593  142.8587  170.1958 C.3     1  UNL1        0.4186
     16 F         139.2146  143.5980  171.2678 F       1  UNL1       -0.1659
     17 F         140.1276  144.1378  169.4306 F       1  UNL1       -0.1659
     18 F         139.7910  141.5797  170.9611 F       1  UNL1       -0.1659
     19 C         144.0881  143.0158  160.7245 C.3     1  UNL1        0.0294
     20 C         142.8877  143.3675  159.8965 C.3     1  UNL1        0.0666
     21 S         142.0343  142.2805  159.3134 S.3     1  UNL1       -0.0756
     22 C         140.2273  142.3855  162.0288 C.3     1  UNL1        0.1340
     23 N         140.8088  141.1521  161.4038 N.ar    1  UNL1       -0.2884
     24 C         141.6394  141.1038  160.1557 C.ar    1  UNL1        0.1932
     25 N         142.0057  139.6723  159.8977 N.ar    1  UNL1       -0.1221
     26 N         141.4015  138.8358  160.9864 N.ar    1  UNL1       -0.1282
     27 C         140.6618  139.7503  161.9172 C.ar    1  UNL1        0.1668
     28 C         139.9075  139.3359  163.1458 C.ar    1  UNL1        0.0360
     29 C         140.2412  138.0437  163.8305 C.ar    1  UNL1        0.0037
     30 C         139.4869  137.6292  165.0590 C.ar    1  UNL1        0.0104
     31 C         138.3988  138.5071  165.6028 C.ar    1  UNL1        0.0685
     32 C         138.0651  139.7993  164.9181 C.ar    1  UNL1        0.0104
     33 C         138.8195  140.2137  163.6895 C.ar    1  UNL1        0.0037
     34 C         137.6445  138.0926  166.8313 C.1     1  UNL1        0.1004
     35 N         136.8903  137.6782  168.0598 N.1     1  UNL1       -0.1908
@<TRIPOS>BOND
     1    22    23    1
     2    23    24   ar
     3    24    21    1
     4    21    20    1
     5    20    19    1
     6    19     1    1
     7     1     2    1
     8     2     3    1
     9     3     4    1
    10     5     4    1
    11     5     6    1
    12     6     7    1
    13     7     9    1
    14     9    10   ar
    15    10    11   ar
    16    11    12   ar
    17    12    15    1
    18    15    16    1
    19    15    17    1
    20    15    18    1
    21    12    13   ar
    22    13    14   ar
    23     5     8    1
    24    24    25   ar
    25    25    26   ar
    26    26    27   ar
    27    27    28    1
    28    28    29   ar
    29    29    30   ar
    30    30    31   ar
    31    31    34    1
    32    34    35    3
    33    31    32   ar
    34    32    33   ar
    35    27    23   ar
    36    33    28   ar
    37     8     2    1
    38     7     5    1
    39    14     9   ar
@<TRIPOS>MOLECULE
*****
 35 39 0 0 0
SMALL
GASTEIGER

@<TRIPOS>ATOM
      1 C         139.6192  143.4459  159.1028 C.3     1  UNL1        0.0730
      2 N         139.7265  144.1053  160.4458 N.3     1  UNL1       -0.2726
      3 C         140.0516  145.5481  160.6962 C.3     1  UNL1        0.0721
      4 C         140.0536  145.7721  162.1794 C.3     1  UNL1        0.0190
      5 C         139.7298  144.4678  162.8456 C.3     1  UNL1        0.0201
      6 C         139.8027  144.9872  164.2509 C.3     1  UNL1        0.0061
      7 C         139.4777  143.5444  164.0006 C.3     1  UNL1        0.0237
      8 C         139.5277  143.4377  161.7742 C.3     1  UNL1        0.0724
      9 C         139.1445  142.1783  164.5228 C.ar    1  UNL1       -0.0225
     10 C         138.4659  141.1800  163.6324 C.ar    1  UNL1       -0.0043
     11 C         138.1327  139.8139  164.1546 C.ar    1  UNL1        0.0035
     12 C         138.4780  139.4462  165.5672 C.ar    1  UNL1        0.0714
     13 C         139.1566  140.4445  166.4576 C.ar    1  UNL1        0.0035
     14 C         139.4898  141.8106  165.9354 C.ar    1  UNL1       -0.0043
     15 C         138.1448  138.0801  166.0894 C.3     1  UNL1        0.4186
     16 F         137.8115  136.7139  166.6116 F       1  UNL1       -0.1659
     17 F         137.4632  138.6990  167.2736 F       1  UNL1       -0.1659
     18 F         138.8263  137.4611  164.9052 F       1  UNL1       -0.1659
     19 C         140.7903  143.4579  158.1656 C.3     1  UNL1        0.0294
     20 C         142.1606  143.7836  158.6816 C.3     1  UNL1        0.0666
     21 S         142.9144  142.7751  159.4968 S.3     1  UNL1       -0.0756
     22 C         142.5195  140.4205  161.7216 C.3     1  UNL1        0.1340
     23 N         142.8383  141.8583  162.0066 N.ar    1  UNL1       -0.2884
     24 C         143.0198  142.9405  160.9840 C.ar    1  UNL1        0.1932
     25 N         143.3253  144.2174  161.7095 N.ar    1  UNL1       -0.1221
     26 N         143.3325  143.9243  163.1806 N.ar    1  UNL1       -0.1282
     27 C         143.0316  142.4662  163.3642 C.ar    1  UNL1        0.1668
     28 C         142.9399  141.7432  164.6753 C.ar    1  UNL1        0.0360
     29 C         143.0843  142.5012  165.9615 C.ar    1  UNL1        0.0037
     30 C         142.9927  141.7782  167.2726 C.ar    1  UNL1        0.0104
     31 C         142.7567  140.2970  167.2972 C.ar    1  UNL1        0.0685
     32 C         142.6124  139.5389  166.0109 C.ar    1  UNL1        0.0104
     33 C         142.7040  140.2621  164.6999 C.ar    1  UNL1        0.0037
     34 C         142.6651  139.5739  168.6083 C.1     1  UNL1        0.1004
     35 N         142.5735  138.8509  169.9193 N.1     1  UNL1       -0.1908
@<TRIPOS>BOND
     1    22    23    1
     2    23    24   ar
     3    24    21    1
     4    21    20    1
     5    20    19    1
     6    19     1    1
     7     1     2    1
     8     2     3    1
     9     3     4    1
    10     5     4    1
    11     5     6    1
    12     6     7    1
    13     7     9    1
    14     9    10   ar
    15    10    11   ar
    16    11    12   ar
    17    12    15    1
    18    15    16    1
    19    15    17    1
    20    15    18    1
    21    12    13   ar
    22    13    14   ar
    23     5     8    1
    24    24    25   ar
    25    25    26   ar
    26    26    27   ar
    27    27    28    1
    28    28    29   ar
    29    29    30   ar
    30    30    31   ar
    31    31    34    1
    32    34    35    3
    33    31    32   ar
    34    32    33   ar
    35    27    23   ar
    36    33    28   ar
    37     8     2    1
    38     7     5    1
    39    14     9   ar
@<TRIPOS>MOLECULE
*****
 35 39 0 0 0
SMALL
GASTEIGER

@<TRIPOS>ATOM
      1 C         141.8603  139.5201  159.5760 C.3     1  UNL1        0.0730
      2 N         142.7100  139.8118  160.7772 N.3     1  UNL1       -0.2726
      3 C         144.0983  139.2985  161.0208 C.3     1  UNL1        0.0721
      4 C         144.5668  139.8376  162.3399 C.3     1  UNL1        0.0190
      5 C         143.4682  140.6840  162.9114 C.3     1  UNL1        0.0201
      6 C         144.1984  141.0626  164.1658 C.3     1  UNL1        0.0061
      7 C         142.8102  141.5759  163.9221 C.3     1  UNL1        0.0237
      8 C         142.3206  140.6681  161.9456 C.3     1  UNL1        0.0724
      9 C         141.6288  142.3871  164.3650 C.ar    1  UNL1       -0.0225
     10 C         140.6913  142.9647  163.3463 C.ar    1  UNL1       -0.0043
     11 C         139.5099  143.7760  163.7891 C.ar    1  UNL1        0.0035
     12 C         139.2660  144.0097  165.2506 C.ar    1  UNL1        0.0714
     13 C         140.2034  143.4321  166.2692 C.ar    1  UNL1        0.0035
     14 C         141.3848  142.6208  165.8264 C.ar    1  UNL1       -0.0043
     15 C         138.0846  144.8209  165.6934 C.3     1  UNL1        0.4186
     16 F         136.9031  145.6322  166.1363 F       1  UNL1       -0.1659
     17 F         138.8293  145.2308  166.9293 F       1  UNL1       -0.1659
     18 F         137.3399  144.4110  164.4576 F       1  UNL1       -0.1659
     19 C         140.3795  139.7524  159.6305 C.3     1  UNL1        0.0294
     20 C         139.4408  138.5873  159.7374 C.3     1  UNL1        0.0666
     21 S         138.8309  138.2346  161.0616 S.3     1  UNL1       -0.0756
     22 C         138.4113  139.9241  163.8219 C.3     1  UNL1        0.1340
     23 N         139.5005  138.9278  163.5548 N.ar    1  UNL1       -0.2884
     24 C         139.6933  138.1513  162.2861 C.ar    1  UNL1        0.1932
     25 N         140.9000  137.2768  162.4567 N.ar    1  UNL1       -0.1221
     26 N         141.4530  137.5129  163.8309 N.ar    1  UNL1       -0.1282
     27 C         140.5880  138.5333  164.5097 C.ar    1  UNL1        0.1668
     28 C         140.7774  139.0656  165.8992 C.ar    1  UNL1        0.0360
     29 C         139.5943  139.5474  166.6855 C.ar    1  UNL1        0.0037
     30 C         139.7836  140.0797  168.0750 C.ar    1  UNL1        0.0104
     31 C         141.1562  140.1303  168.6782 C.ar    1  UNL1        0.0685
     32 C         142.3392  139.6486  167.8919 C.ar    1  UNL1        0.0104
     33 C         142.1498  139.1162  166.5024 C.ar    1  UNL1        0.0037
     34 C         141.3455  140.6627  170.0677 C.1     1  UNL1        0.1004
     35 N         141.5348  141.1950  171.4572 N.1     1  UNL1       -0.1908
@<TRIPOS>BOND
     1    22    23    1
     2    23    24   ar
     3    24    21    1
     4    21    20    1
     5    20    19    1
     6    19     1    1
     7     1     2    1
     8     2     3    1
     9     3     4    1
    10     5     4    1
    11     5     6    1
    12     6     7    1
    13     7     9    1
    14     9    10   ar
    15    10    11   ar
    16    11    12   ar
    17    12    15    1
    18    15    16    1
    19    15    17    1
    20    15    18    1
    21    12    13   ar
    22    13    14   ar
    23     5     8    1
    24    24    25   ar
    25    25    26   ar
    26    26    27   ar
    27    27    28    1
    28    28    29   ar
    29    29    30   ar
    30    30    31   ar
    31    31    34    1
    32    34    35    3
    33    31    32   ar
    34    32    33   ar
    35    27    23   ar
    36    33    28   ar
    37     8     2    1
    38     7     5    1
    39    14     9   ar
@<TRIPOS>MOLECULE
*****
 35 39 0 0 0
SMALL
GASTEIGER

@<TRIPOS>ATOM
      1 C         142.2749  143.4905  159.8656 C.3     1  UNL1        0.0730
      2 N         142.5185  142.0164  159.7332 N.3     1  UNL1       -0.2726
      3 C         143.3732  141.3538  158.6938 C.3     1  UNL1        0.0721
      4 C         143.3330  139.8739  158.9352 C.3     1  UNL1        0.0190
      5 C         142.4535  139.6219  160.1239 C.3     1  UNL1        0.0201
      6 C         142.6037  138.1294  160.1165 C.3     1  UNL1        0.0061
      7 C         141.7490  138.7920  161.1560 C.3     1  UNL1        0.0237
      8 C         141.9501  140.9460  160.6171 C.3     1  UNL1        0.0724
      9 C         140.8489  138.6955  162.3520 C.ar    1  UNL1       -0.0225
     10 C         141.2132  137.7938  163.4940 C.ar    1  UNL1       -0.0043
     11 C         140.3130  137.6972  164.6900 C.ar    1  UNL1        0.0035
     12 C         139.0486  138.5024  164.7440 C.ar    1  UNL1        0.0714
     13 C         138.6844  139.4041  163.6019 C.ar    1  UNL1        0.0035
     14 C         139.5845  139.5007  162.4059 C.ar    1  UNL1       -0.0043
     15 C         138.1485  138.4059  165.9399 C.3     1  UNL1        0.4186
     16 F         137.2483  138.3094  167.1360 F       1  UNL1       -0.1659
     17 F         138.3872  136.9263  166.0002 F       1  UNL1       -0.1659
     18 F         137.9098  139.8855  165.8797 F       1  UNL1       -0.1659
     19 C         140.8826  144.0347  159.7424 C.3     1  UNL1        0.0294
     20 C         140.6021  145.4650  160.0968 C.3     1  UNL1        0.0666
     21 S         139.9760  145.8016  161.4176 S.3     1  UNL1       -0.0756
     22 C         142.1179  144.4701  163.4886 C.3     1  UNL1        0.1340
     23 N         140.6695  144.1017  163.3604 N.ar    1  UNL1       -0.2884
     24 C         139.6850  144.7137  162.4085 C.ar    1  UNL1        0.1932
     25 N         138.3583  144.0468  162.6213 N.ar    1  UNL1       -0.1221
     26 N         138.5229  143.0226  163.7048 N.ar    1  UNL1       -0.1282
     27 C         139.9513  143.0565  164.1616 C.ar    1  UNL1        0.1668
     28 C         140.5554  142.1963  165.2317 C.ar    1  UNL1        0.0360
     29 C         141.7110  141.2965  164.9074 C.ar    1  UNL1        0.0037
     30 C         142.3151  140.4363  165.9775 C.ar    1  UNL1        0.0104
     31 C         141.7636  140.4759  167.3719 C.ar    1  UNL1        0.0685
     32 C         140.6080  141.3756  167.6962 C.ar    1  UNL1        0.0104
     33 C         140.0039  142.2358  166.6261 C.ar    1  UNL1        0.0037
     34 C         142.3677  139.6157  168.4420 C.1     1  UNL1        0.1004
     35 N         142.9718  138.7555  169.5121 N.1     1  UNL1       -0.1908
@<TRIPOS>BOND
     1    22    23    1
     2    23    24   ar
     3    24    21    1
     4    21    20    1
     5    20    19    1
     6    19     1    1
     7     1     2    1
     8     2     3    1
     9     3     4    1
    10     5     4    1
    11     5     6    1
    12     6     7    1
    13     7     9    1
    14     9    10   ar
    15    10    11   ar
    16    11    12   ar
    17    12    15    1
    18    15    16    1
    19    15    17    1
    20    15    18    1
    21    12    13   ar
    22    13    14   ar
    23     5     8    1
    24    24    25   ar
    25    25    26   ar
    26    26    27   ar
    27    27    28    1
    28    28    29   ar
    29    29    30   ar
    30    30    31   ar
    31    31    34    1
    32    34    35    3
    33    31    32   ar
    34    32    33   ar
    35    27    23   ar
    36    33    28   ar
    37     8     2    1
    38     7     5    1
    39    14     9   ar
@<TRIPOS>MOLECULE
*****
 35 39 0 0 0
SMALL
GASTEIGER

@<TRIPOS>ATOM
      1 C         139.1565  143.2718  158.8879 C.3     1  UNL1        0.0730
      2 N         139.6118  143.9322  160.1554 N.3     1  UNL1       -0.2726
      3 C         140.2049  145.3051  160.2704 C.3     1  UNL1        0.0721
      4 C         140.5135  145.5570  161.7165 C.3     1  UNL1        0.0190
      5 C         140.1113  144.3397  162.4953 C.3     1  UNL1        0.0201
      6 C         140.5220  144.8692  163.8372 C.3     1  UNL1        0.0061
      7 C         139.9289  143.4963  163.7222 C.3     1  UNL1        0.0237
      8 C         139.5539  143.3355  161.5304 C.3     1  UNL1        0.0724
      9 C         139.4812  142.2166  164.3641 C.ar    1  UNL1       -0.0225
     10 C         140.0934  141.7732  165.6598 C.ar    1  UNL1       -0.0043
     11 C         139.6457  140.4936  166.3017 C.ar    1  UNL1        0.0035
     12 C         138.5859  139.6574  165.6480 C.ar    1  UNL1        0.0714
     13 C         137.9737  140.1007  164.3523 C.ar    1  UNL1        0.0035
     14 C         138.4214  141.3804  163.7104 C.ar    1  UNL1       -0.0043
     15 C         138.1382  138.3777  166.2899 C.3     1  UNL1        0.4186
     16 F         137.6905  137.0980  166.9318 F       1  UNL1       -0.1659
     17 F         138.0219  139.0806  167.6099 F       1  UNL1       -0.1659
     18 F         138.2545  137.6749  164.9699 F       1  UNL1       -0.1659
     19 C         140.1594  142.6371  157.9707 C.3     1  UNL1        0.0294
     20 C         139.7162  141.6141  156.9672 C.3     1  UNL1        0.0666
     21 S         139.7083  140.1594  157.3326 S.3     1  UNL1       -0.0756
     22 C         142.1632  139.8402  159.4590 C.3     1  UNL1        0.1340
     23 N         140.7106  139.6010  159.7469 N.ar    1  UNL1       -0.2884
     24 C         139.5822  139.7478  158.7695 C.ar    1  UNL1        0.1932
     25 N         138.3056  139.4106  159.4812 N.ar    1  UNL1       -0.1221
     26 N         138.6450  139.0555  160.8985 N.ar    1  UNL1       -0.1282
     27 C         140.1313  139.1732  161.0628 C.ar    1  UNL1        0.1668
     28 C         140.9029  138.9094  162.3218 C.ar    1  UNL1        0.0360
     29 C         141.8442  139.9479  162.8561 C.ar    1  UNL1        0.0037
     30 C         142.6158  139.6840  164.1151 C.ar    1  UNL1        0.0104
     31 C         142.4460  138.3816  164.8397 C.ar    1  UNL1        0.0685
     32 C         141.5048  137.3431  164.3054 C.ar    1  UNL1        0.0104
     33 C         140.7332  137.6070  163.0463 C.ar    1  UNL1        0.0037
     34 C         143.2176  138.1178  166.0987 C.1     1  UNL1        0.1004
     35 N         143.9892  137.8540  167.3577 N.1     1  UNL1       -0.1908
@<TRIPOS>BOND
     1    22    23    1
     2    23    24   ar
     3    24    21    1
     4    21    20    1
     5    20    19    1
     6    19     1    1
     7     1     2    1
     8     2     3    1
     9     3     4    1
    10     5     4    1
    11     5     6    1
    12     6     7    1
    13     7     9    1
    14     9    10   ar
    15    10    11   ar
    16    11    12   ar
    17    12    15    1
    18    15    16    1
    19    15    17    1
    20    15    18    1
    21    12    13   ar
    22    13    14   ar
    23     5     8    1
    24    24    25   ar
    25    25    26   ar
    26    26    27   ar
    27    27    28    1
    28    28    29   ar
    29    29    30   ar
    30    30    31   ar
    31    31    34    1
    32    34    35    3
    33    31    32   ar
    34    32    33   ar
    35    27    23   ar
    36    33    28   ar
    37     8     2    1
    38     7     5    1
    39    14     9   ar
@<TRIPOS>MOLECULE
*****
 35 39 0 0 0
SMALL
GASTEIGER

@<TRIPOS>ATOM
      1 C         140.1443  142.2306  160.9805 C.3     1  UNL1        0.0730
      2 N         141.4966  142.1521  161.6247 N.3     1  UNL1       -0.2726
      3 C         142.8006  141.9393  160.9144 C.3     1  UNL1        0.0721
      4 C         143.8922  141.9284  161.9430 C.3     1  UNL1        0.0190
      5 C         143.2630  142.1344  163.2890 C.3     1  UNL1        0.0201
      6 C         144.5422  142.0779  164.0704 C.3     1  UNL1        0.0061
      7 C         143.2383  142.2908  164.7807 C.3     1  UNL1        0.0237
      8 C         141.7825  142.2728  163.0923 C.3     1  UNL1        0.0724
      9 C         142.4712  142.5040  166.0519 C.ar    1  UNL1       -0.0225
     10 C         143.1857  142.4885  167.3707 C.ar    1  UNL1       -0.0043
     11 C         142.4186  142.7016  168.6419 C.ar    1  UNL1        0.0035
     12 C         140.9369  142.9303  168.5944 C.ar    1  UNL1        0.0714
     13 C         140.2223  142.9457  167.2756 C.ar    1  UNL1        0.0035
     14 C         140.9895  142.7326  166.0043 C.ar    1  UNL1       -0.0043
     15 C         140.1698  143.1434  169.8656 C.3     1  UNL1        0.4186
     16 F         139.4026  143.3566  171.1369 F       1  UNL1       -0.1659
     17 F         140.2011  144.6254  169.6360 F       1  UNL1       -0.1659
     18 F         140.1385  141.6615  170.0952 F       1  UNL1       -0.1659
     19 C         139.7325  141.1986  159.9729 C.3     1  UNL1        0.0294
     20 C         138.3222  140.6879  159.9557 C.3     1  UNL1        0.0666
     21 S         137.8574  139.7328  161.0149 S.3     1  UNL1       -0.0756
     22 C         138.5872  140.8873  163.9786 C.3     1  UNL1        0.1340
     23 N         139.1809  139.6687  163.3364 N.ar    1  UNL1       -0.2884
     24 C         138.8454  139.1380  161.9741 C.ar    1  UNL1        0.1932
     25 N         139.6714  137.9081  161.7394 N.ar    1  UNL1       -0.1221
     26 N         140.5174  137.6786  162.9566 N.ar    1  UNL1       -0.1282
     27 C         140.2142  138.7667  163.9437 C.ar    1  UNL1        0.1668
     28 C         140.8354  138.9251  165.2998 C.ar    1  UNL1        0.0360
     29 C         142.3121  138.7297  165.4758 C.ar    1  UNL1        0.0037
     30 C         142.9333  138.8881  166.8320 C.ar    1  UNL1        0.0104
     31 C         142.0775  139.2417  168.0121 C.ar    1  UNL1        0.0685
     32 C         140.6007  139.4371  167.8361 C.ar    1  UNL1        0.0104
     33 C         139.9797  139.2787  166.4799 C.ar    1  UNL1        0.0037
     34 C         142.6986  139.4001  169.3683 C.1     1  UNL1        0.1004
     35 N         143.3197  139.5584  170.7244 N.1     1  UNL1       -0.1908
@<TRIPOS>BOND
     1    22    23    1
     2    23    24   ar
     3    24    21    1
     4    21    20    1
     5    20    19    1
     6    19     1    1
     7     1     2    1
     8     2     3    1
     9     3     4    1
    10     5     4    1
    11     5     6    1
    12     6     7    1
    13     7     9    1
    14     9    10   ar
    15    10    11   ar
    16    11    12   ar
    17    12    15    1
    18    15    16    1
    19    15    17    1
    20    15    18    1
    21    12    13   ar
    22    13    14   ar
    23     5     8    1
    24    24    25   ar
    25    25    26   ar
    26    26    27   ar
    27    27    28    1
    28    28    29   ar
    29    29    30   ar
    30    30    31   ar
    31    31    34    1
    32    34    35    3
    33    31    32   ar
    34    32    33   ar
    35    27    23   ar
    36    33    28   ar
    37     8     2    1
    38     7     5    1
    39    14     9   ar
