@<TRIPOS>MOLECULE
*****
 32 36 0 0 0
SMALL
GASTEIGER

@<TRIPOS>ATOM
      1 C         142.4089  144.3728  161.5061 C.3     1  UNL1        0.0730
      2 N         143.2510  143.3632  162.2282 N.3     1  UNL1       -0.2724
      3 C         144.5809  142.8382  161.7746 C.3     1  UNL1        0.0724
      4 C         145.0630  141.8518  162.7967 C.3     1  UNL1        0.0214
      5 C         145.2763  140.9351  163.9647 C.3     1  UNL1        0.0072
      6 C         144.0310  141.7671  163.8820 C.3     1  UNL1        0.0350
      7 C         142.9112  142.7012  163.5306 C.3     1  UNL1        0.0761
      8 C         143.4307  141.2791  165.1671 C.ar    1  UNL1       -0.0215
      9 C         143.3418  142.1976  166.3497 C.ar    1  UNL1       -0.0043
     10 C         142.7415  141.7097  167.6349 C.ar    1  UNL1        0.0035
     11 C         142.2302  140.3032  167.7374 C.ar    1  UNL1        0.0714
     12 C         142.3192  139.3847  166.5548 C.ar    1  UNL1        0.0035
     13 C         142.9194  139.8727  165.2697 C.ar    1  UNL1       -0.0043
     14 C         141.6300  139.8152  169.0226 C.3     1  UNL1        0.4186
     15 F         141.0298  139.3272  170.3077 F       1  UNL1       -0.1659
     16 F         140.2929  139.6967  168.3531 F       1  UNL1       -0.1659
     17 F         142.9670  139.9337  169.6921 F       1  UNL1       -0.1659
     18 C         140.9133  144.3051  161.5977 C.3     1  UNL1        0.0294
     19 C         140.1803  145.1868  162.5649 C.3     1  UNL1        0.0666
     20 S         138.8026  144.8125  163.0251 S.3     1  UNL1       -0.0756
     21 C         138.1659  141.0623  163.7968 C.ar    1  UNL1        0.2013
     22 N         137.3767  141.2363  162.5332 N.ar    1  UNL1       -0.1250
     23 N         137.5191  142.6622  162.0903 N.ar    1  UNL1       -0.1220
     24 C         138.3964  143.3696  163.0802 C.ar    1  UNL1        0.1933
     25 N         138.7961  142.3808  164.1349 N.ar    1  UNL1       -0.2860
     26 C         139.6722  142.6613  165.3197 C.3     1  UNL1        0.1341
     27 C         139.6548  138.3354  162.7985 C.3     1  UNL1        0.0344
     28 C         138.9855  138.5394  164.1253 C.ar    1  UNL1        0.0189
     29 C         138.8831  137.5256  165.2262 C.ar    1  UNL1        0.0395
     30 C         138.1354  138.1526  166.3654 C.ar    1  UNL1        0.1794
     31 O         137.7757  139.5536  165.9687 O.2     1  UNL1       -0.4476
     32 C         138.3011  139.7927  164.5842 C.ar    1  UNL1        0.1772
@<TRIPOS>BOND
     1    27    28    1
     2    28    29   ar
     3    29    30   ar
     4    30    31   ar
     5    31    32   ar
     6    32    21    1
     7    21    22   ar
     8    22    23   ar
     9    23    24   ar
    10    24    20    1
    11    20    19    1
    12    19    18    1
    13    18     1    1
    14     1     2    1
    15     2     3    1
    16     4     3    1
    17     4     5    1
    18     5     6    1
    19     6     8    1
    20     8     9   ar
    21     9    10   ar
    22    10    11   ar
    23    11    14    1
    24    14    15    1
    25    14    16    1
    26    14    17    1
    27    11    12   ar
    28    12    13   ar
    29     6     7    1
    30    24    25   ar
    31    25    26    1
    32    32    28   ar
    33    25    21   ar
    34     7     2    1
    35     6     4    1
    36    13     8   ar
@<TRIPOS>MOLECULE
*****
 32 36 0 0 0
SMALL
GASTEIGER

@<TRIPOS>ATOM
      1 C         137.2381  141.4353  162.6937 C.3     1  UNL1        0.0730
      2 N         138.0413  140.3173  163.2896 N.3     1  UNL1       -0.2724
      3 C         138.2737  138.9711  162.6700 C.3     1  UNL1        0.0724
      4 C         139.1291  138.1710  163.6071 C.3     1  UNL1        0.0214
      5 C         139.9728  137.6287  164.7225 C.3     1  UNL1        0.0072
      6 C         139.4253  139.0227  164.8059 C.3     1  UNL1        0.0350
      7 C         138.7530  140.3491  164.6096 C.3     1  UNL1        0.0761
      8 C         140.0226  139.3460  166.1433 C.ar    1  UNL1       -0.0215
      9 C         139.1354  139.7529  167.2822 C.ar    1  UNL1       -0.0043
     10 C         139.7326  140.0762  168.6198 C.ar    1  UNL1        0.0035
     11 C         141.2171  139.9926  168.8182 C.ar    1  UNL1        0.0714
     12 C         142.1043  139.5857  167.6792 C.ar    1  UNL1        0.0035
     13 C         141.5071  139.2624  166.3417 C.ar    1  UNL1       -0.0043
     14 C         141.8144  140.3159  170.1556 C.3     1  UNL1        0.4186
     15 F         142.4116  140.6392  171.4931 F       1  UNL1       -0.1659
     16 F         140.4486  140.2780  170.7747 F       1  UNL1       -0.1659
     17 F         143.1801  140.3539  169.5366 F       1  UNL1       -0.1659
     18 C         137.8827  142.7636  162.4290 C.3     1  UNL1        0.0294
     19 C         137.6434  143.9127  163.3629 C.3     1  UNL1        0.0666
     20 S         138.8062  144.6417  163.9685 S.3     1  UNL1       -0.0756
     21 C         142.0964  142.6809  164.5968 C.ar    1  UNL1        0.2013
     22 N         141.5030  142.7002  165.9743 N.ar    1  UNL1       -0.1250
     23 N         140.1983  143.4371  165.9066 N.ar    1  UNL1       -0.1220
     24 C         139.9853  143.8731  164.4873 C.ar    1  UNL1        0.1933
     25 N         141.1585  143.4057  163.6778 N.ar    1  UNL1       -0.2860
     26 C         141.3584  143.6248  162.2074 C.3     1  UNL1        0.1341
     27 C         142.4538  139.9420  162.8587 C.3     1  UNL1        0.0344
     28 C         143.5635  140.7889  163.4080 C.ar    1  UNL1        0.0189
     29 C         145.0322  140.5254  163.2547 C.ar    1  UNL1        0.0395
     30 C         145.7756  141.6215  163.9589 C.ar    1  UNL1        0.1794
     31 O         144.7664  142.5623  164.5473 O.2     1  UNL1       -0.4476
     32 C         143.3992  142.0477  164.2068 C.ar    1  UNL1        0.1772
@<TRIPOS>BOND
     1    27    28    1
     2    28    29   ar
     3    29    30   ar
     4    30    31   ar
     5    31    32   ar
     6    32    21    1
     7    21    22   ar
     8    22    23   ar
     9    23    24   ar
    10    24    20    1
    11    20    19    1
    12    19    18    1
    13    18     1    1
    14     1     2    1
    15     2     3    1
    16     4     3    1
    17     4     5    1
    18     5     6    1
    19     6     8    1
    20     8     9   ar
    21     9    10   ar
    22    10    11   ar
    23    11    14    1
    24    14    15    1
    25    14    16    1
    26    14    17    1
    27    11    12   ar
    28    12    13   ar
    29     6     7    1
    30    24    25   ar
    31    25    26    1
    32    32    28   ar
    33    25    21   ar
    34     7     2    1
    35     6     4    1
    36    13     8   ar
@<TRIPOS>MOLECULE
*****
 32 36 0 0 0
SMALL
GASTEIGER

@<TRIPOS>ATOM
      1 C         142.0954  141.5353  161.0261 C.3     1  UNL1        0.0730
      2 N         142.8612  140.8492  162.1183 N.3     1  UNL1       -0.2724
      3 C         144.0452  139.9472  161.9324 C.3     1  UNL1        0.0724
      4 C         144.4933  139.4852  163.2873 C.3     1  UNL1        0.0214
      5 C         144.7029  139.1993  164.7448 C.3     1  UNL1        0.0072
      6 C         143.5862  140.1017  164.3106 C.3     1  UNL1        0.0350
      7 C         142.5775  140.9447  163.5881 C.3     1  UNL1        0.0761
      8 C         143.0690  140.3858  165.6897 C.ar    1  UNL1       -0.0215
      9 C         142.9504  141.8022  166.1691 C.ar    1  UNL1       -0.0043
     10 C         142.4332  142.0863  167.5482 C.ar    1  UNL1        0.0035
     11 C         142.0347  140.9541  168.4478 C.ar    1  UNL1        0.0714
     12 C         142.1534  139.5377  167.9683 C.ar    1  UNL1        0.0035
     13 C         142.6706  139.2536  166.5893 C.ar    1  UNL1       -0.0043
     14 C         141.5176  141.2382  169.8269 C.3     1  UNL1        0.4186
     15 F         141.0004  141.5224  171.2059 F       1  UNL1       -0.1659
     16 F         140.1219  140.9412  169.3647 F       1  UNL1       -0.1659
     17 F         142.9133  141.5353  170.2891 F       1  UNL1       -0.1659
     18 C         141.7634  140.7956  159.7641 C.3     1  UNL1        0.0294
     19 C         140.4382  140.1068  159.6250 C.3     1  UNL1        0.0666
     20 S         140.2983  138.6645  160.0126 S.3     1  UNL1       -0.0756
     21 C         139.6568  138.0102  163.7842 C.ar    1  UNL1        0.2013
     22 N         140.9801  137.3302  163.5931 N.ar    1  UNL1       -0.1250
     23 N         141.3814  137.4925  162.1570 N.ar    1  UNL1       -0.1220
     24 C         140.3062  138.2728  161.4605 C.ar    1  UNL1        0.1933
     25 N         139.2404  138.5928  162.4663 N.ar    1  UNL1       -0.2860
     26 C         137.9794  139.3606  162.2006 C.3     1  UNL1        0.1341
     27 C         139.3161  140.6663  165.6494 C.3     1  UNL1        0.0344
     28 C         138.7289  139.3139  165.9254 C.ar    1  UNL1        0.0189
     29 C         137.8819  138.9450  167.1071 C.ar    1  UNL1        0.0395
     30 C         137.5150  137.4961  166.9802 C.ar    1  UNL1        0.1794
     31 O         138.1352  136.9696  165.7200 O.2     1  UNL1       -0.4476
     32 C         138.8854  138.0931  165.0681 C.ar    1  UNL1        0.1772
@<TRIPOS>BOND
     1    27    28    1
     2    28    29   ar
     3    29    30   ar
     4    30    31   ar
     5    31    32   ar
     6    32    21    1
     7    21    22   ar
     8    22    23   ar
     9    23    24   ar
    10    24    20    1
    11    20    19    1
    12    19    18    1
    13    18     1    1
    14     1     2    1
    15     2     3    1
    16     4     3    1
    17     4     5    1
    18     5     6    1
    19     6     8    1
    20     8     9   ar
    21     9    10   ar
    22    10    11   ar
    23    11    14    1
    24    14    15    1
    25    14    16    1
    26    14    17    1
    27    11    12   ar
    28    12    13   ar
    29     6     7    1
    30    24    25   ar
    31    25    26    1
    32    32    28   ar
    33    25    21   ar
    34     7     2    1
    35     6     4    1
    36    13     8   ar
@<TRIPOS>MOLECULE
*****
 32 36 0 0 0
SMALL
GASTEIGER

@<TRIPOS>ATOM
      1 C         138.9911  145.2805  162.4285 C.3     1  UNL1        0.0730
      2 N         138.6555  143.8496  162.7286 N.3     1  UNL1       -0.2724
      3 C         137.9426  142.9003  161.8118 C.3     1  UNL1        0.0724
      4 C         137.8204  141.5808  162.5147 C.3     1  UNL1        0.0214
      5 C         137.8486  140.4086  163.4501 C.3     1  UNL1        0.0072
      6 C         138.4579  141.7146  163.8659 C.3     1  UNL1        0.0350
      7 C         138.9740  143.1169  163.9980 C.3     1  UNL1        0.0761
      8 C         138.9038  141.2549  165.2223 C.ar    1  UNL1       -0.0215
      9 C         138.4087  139.9501  165.7722 C.ar    1  UNL1       -0.0043
     10 C         138.8546  139.4904  167.1286 C.ar    1  UNL1        0.0035
     11 C         139.7955  140.3355  167.9352 C.ar    1  UNL1        0.0714
     12 C         140.2906  141.6404  167.3852 C.ar    1  UNL1        0.0035
     13 C         139.8447  142.1001  166.0288 C.ar    1  UNL1       -0.0043
     14 C         140.2414  139.8758  169.2916 C.3     1  UNL1        0.4186
     15 F         140.6873  139.4161  170.6480 F       1  UNL1       -0.1659
     16 F         138.8908  140.2134  169.8500 F       1  UNL1       -0.1659
     17 F         141.5920  139.5381  168.7332 F       1  UNL1       -0.1659
     18 C         140.3186  145.6285  161.8231 C.3     1  UNL1        0.0294
     19 C         140.6827  145.1081  160.4642 C.3     1  UNL1        0.0666
     20 S         141.7655  144.0799  160.3202 S.3     1  UNL1       -0.0756
     21 C         141.5069  140.7243  162.2535 C.ar    1  UNL1        0.2013
     22 N         140.9055  140.3450  160.9328 N.ar    1  UNL1       -0.1250
     23 N         140.9292  141.5558  160.0478 N.ar    1  UNL1       -0.1220
     24 C         141.5452  142.6835  160.8216 C.ar    1  UNL1        0.1933
     25 N         141.9023  142.1696  162.1848 N.ar    1  UNL1       -0.2860
     26 C         142.5423  142.9620  163.2860 C.3     1  UNL1        0.1341
     27 C         140.1705  137.7697  162.6194 C.3     1  UNL1        0.0344
     28 C         141.0679  138.4595  163.6037 C.ar    1  UNL1        0.0189
     29 C         141.5086  137.9122  164.9289 C.ar    1  UNL1        0.0395
     30 C         142.3953  138.9321  165.5798 C.ar    1  UNL1        0.1794
     31 O         142.5026  140.1096  164.6569 O.2     1  UNL1       -0.4476
     32 C         141.6822  139.8175  163.4355 C.ar    1  UNL1        0.1772
@<TRIPOS>BOND
     1    27    28    1
     2    28    29   ar
     3    29    30   ar
     4    30    31   ar
     5    31    32   ar
     6    32    21    1
     7    21    22   ar
     8    22    23   ar
     9    23    24   ar
    10    24    20    1
    11    20    19    1
    12    19    18    1
    13    18     1    1
    14     1     2    1
    15     2     3    1
    16     4     3    1
    17     4     5    1
    18     5     6    1
    19     6     8    1
    20     8     9   ar
    21     9    10   ar
    22    10    11   ar
    23    11    14    1
    24    14    15    1
    25    14    16    1
    26    14    17    1
    27    11    12   ar
    28    12    13   ar
    29     6     7    1
    30    24    25   ar
    31    25    26    1
    32    32    28   ar
    33    25    21   ar
    34     7     2    1
    35     6     4    1
    36    13     8   ar
@<TRIPOS>MOLECULE
*****
 32 36 0 0 0
SMALL
GASTEIGER

@<TRIPOS>ATOM
      1 C         142.1637  144.3156  161.4432 C.3     1  UNL1        0.0730
      2 N         143.1209  143.4290  162.1834 N.3     1  UNL1       -0.2724
      3 C         144.4852  143.0184  161.7141 C.3     1  UNL1        0.0724
      4 C         145.0893  142.1330  162.7634 C.3     1  UNL1        0.0214
      5 C         145.4228  141.2970  163.9633 C.3     1  UNL1        0.0072
      6 C         144.0985  141.9964  163.8812 C.3     1  UNL1        0.0350
      7 C         142.8820  142.7974  163.5227 C.3     1  UNL1        0.0761
      8 C         143.5826  141.5110  165.2034 C.ar    1  UNL1       -0.0215
      9 C         143.2581  140.0591  165.3946 C.ar    1  UNL1       -0.0043
     10 C         142.7422  139.5737  166.7169 C.ar    1  UNL1        0.0035
     11 C         142.5509  140.5402  167.8479 C.ar    1  UNL1        0.0714
     12 C         142.8754  141.9922  167.6567 C.ar    1  UNL1        0.0035
     13 C         143.3913  142.4776  166.3345 C.ar    1  UNL1       -0.0043
     14 C         142.0350  140.0548  169.1701 C.3     1  UNL1        0.4186
     15 F         141.5191  139.5695  170.4923 F       1  UNL1       -0.1659
     16 F         143.3278  140.4504  169.8198 F       1  UNL1       -0.1659
     17 F         140.7421  139.6593  168.5205 F       1  UNL1       -0.1659
     18 C         141.8276  144.0255  160.0105 C.3     1  UNL1        0.0294
     19 C         140.4326  144.2503  159.5071 C.3     1  UNL1        0.0666
     20 S         139.4715  143.1017  159.4228 S.3     1  UNL1       -0.0756
     21 C         138.6024  141.0730  162.6156 C.ar    1  UNL1        0.2013
     22 N         137.4879  142.0768  162.5977 N.ar    1  UNL1       -0.1250
     23 N         137.6778  142.9588  161.3995 N.ar    1  UNL1       -0.1220
     24 C         138.9097  142.5003  160.6769 C.ar    1  UNL1        0.1933
     25 N         139.4811  141.3348  161.4285 N.ar    1  UNL1       -0.2860
     26 C         140.7147  140.5660  161.0580 C.3     1  UNL1        0.1341
     27 C         139.5196  141.5226  165.7151 C.3     1  UNL1        0.0344
     28 C         139.2246  140.2031  165.0654 C.ar    1  UNL1        0.0189
     29 C         139.2993  138.8587  165.7263 C.ar    1  UNL1        0.0395
     30 C         138.9240  137.8211  164.7102 C.ar    1  UNL1        0.1794
     31 O         138.6172  138.5243  163.4213 O.2     1  UNL1       -0.4476
     32 C         138.8030  139.9965  163.6408 C.ar    1  UNL1        0.1772
@<TRIPOS>BOND
     1    27    28    1
     2    28    29   ar
     3    29    30   ar
     4    30    31   ar
     5    31    32   ar
     6    32    21    1
     7    21    22   ar
     8    22    23   ar
     9    23    24   ar
    10    24    20    1
    11    20    19    1
    12    19    18    1
    13    18     1    1
    14     1     2    1
    15     2     3    1
    16     4     3    1
    17     4     5    1
    18     5     6    1
    19     6     8    1
    20     8     9   ar
    21     9    10   ar
    22    10    11   ar
    23    11    14    1
    24    14    15    1
    25    14    16    1
    26    14    17    1
    27    11    12   ar
    28    12    13   ar
    29     6     7    1
    30    24    25   ar
    31    25    26    1
    32    32    28   ar
    33    25    21   ar
    34     7     2    1
    35     6     4    1
    36    13     8   ar
@<TRIPOS>MOLECULE
*****
 32 36 0 0 0
SMALL
GASTEIGER

@<TRIPOS>ATOM
      1 C         141.7899  139.3309  158.8806 C.3     1  UNL1        0.0730
      2 N         140.6041  139.2666  159.7970 N.3     1  UNL1       -0.2724
      3 C         139.5647  138.1853  159.8195 C.3     1  UNL1        0.0724
      4 C         138.5678  138.5228  160.8882 C.3     1  UNL1        0.0214
      5 C         137.7525  139.1121  162.0008 C.3     1  UNL1        0.0072
      6 C         138.9909  139.8127  161.5262 C.3     1  UNL1        0.0350
      7 C         140.2494  140.2724  160.8518 C.3     1  UNL1        0.0761
      8 C         138.8952  140.9649  162.4819 C.ar    1  UNL1       -0.0215
      9 C         137.5584  141.5659  162.8004 C.ar    1  UNL1       -0.0043
     10 C         137.4626  142.7182  163.7561 C.ar    1  UNL1        0.0035
     11 C         138.7038  143.2694  164.3931 C.ar    1  UNL1        0.0714
     12 C         140.0407  142.6683  164.0745 C.ar    1  UNL1        0.0035
     13 C         140.1364  141.5161  163.1189 C.ar    1  UNL1       -0.0043
     14 C         138.6081  144.4216  165.3487 C.3     1  UNL1        0.4186
     15 F         138.5124  145.5738  166.3043 F       1  UNL1       -0.1659
     16 F         137.1248  144.4776  165.1327 F       1  UNL1       -0.1659
     17 F         140.0913  144.3656  165.5648 F       1  UNL1       -0.1659
     18 C         143.1241  138.8259  159.3440 C.3     1  UNL1        0.0294
     19 C         143.1984  137.7658  160.4025 C.3     1  UNL1        0.0666
     20 S         143.5592  138.1359  161.8107 S.3     1  UNL1       -0.0756
     21 C         141.2750  138.6063  164.9132 C.ar    1  UNL1        0.2013
     22 N         140.5244  137.5496  164.1582 N.ar    1  UNL1       -0.1250
     23 N         141.2888  137.2447  162.9042 N.ar    1  UNL1       -0.1220
     24 C         142.5117  138.1131  162.8840 C.ar    1  UNL1        0.1933
     25 N         142.5031  138.9546  164.1257 N.ar    1  UNL1       -0.2860
     26 C         143.5406  139.9667  164.5120 C.3     1  UNL1        0.1341
     27 C         138.2570  139.5233  165.7503 C.3     1  UNL1        0.0344
     28 C         139.4814  139.6305  166.6101 C.ar    1  UNL1        0.0189
     29 C         139.5336  140.1779  168.0056 C.ar    1  UNL1        0.0395
     30 C         140.9530  140.0948  168.4834 C.ar    1  UNL1        0.1794
     31 O         141.7781  139.4960  167.3832 O.2     1  UNL1       -0.4476
     32 C         140.8686  139.2090  166.2254 C.ar    1  UNL1        0.1772
@<TRIPOS>BOND
     1    27    28    1
     2    28    29   ar
     3    29    30   ar
     4    30    31   ar
     5    31    32   ar
     6    32    21    1
     7    21    22   ar
     8    22    23   ar
     9    23    24   ar
    10    24    20    1
    11    20    19    1
    12    19    18    1
    13    18     1    1
    14     1     2    1
    15     2     3    1
    16     4     3    1
    17     4     5    1
    18     5     6    1
    19     6     8    1
    20     8     9   ar
    21     9    10   ar
    22    10    11   ar
    23    11    14    1
    24    14    15    1
    25    14    16    1
    26    14    17    1
    27    11    12   ar
    28    12    13   ar
    29     6     7    1
    30    24    25   ar
    31    25    26    1
    32    32    28   ar
    33    25    21   ar
    34     7     2    1
    35     6     4    1
    36    13     8   ar
@<TRIPOS>MOLECULE
*****
 32 36 0 0 0
SMALL
GASTEIGER

@<TRIPOS>ATOM
      1 C         142.1495  137.7550  162.2779 C.3     1  UNL1        0.0730
      2 N         141.1461  138.2124  163.2948 N.3     1  UNL1       -0.2724
      3 C         139.6831  137.8818  163.3004 C.3     1  UNL1        0.0724
      4 C         139.0623  138.5457  164.4937 C.3     1  UNL1        0.0214
      5 C         138.7331  139.3123  165.7402 C.3     1  UNL1        0.0072
      6 C         140.1418  139.2868  165.2255 C.3     1  UNL1        0.0350
      7 C         141.4296  139.0807  164.4846 C.3     1  UNL1        0.0761
      8 C         140.7198  140.1497  166.3077 C.ar    1  UNL1       -0.0215
      9 C         141.9664  139.7209  167.0234 C.ar    1  UNL1       -0.0043
     10 C         142.5444  140.5839  168.1056 C.ar    1  UNL1        0.0035
     11 C         141.8759  141.8757  168.4721 C.ar    1  UNL1        0.0714
     12 C         140.6293  142.3045  167.7564 C.ar    1  UNL1        0.0035
     13 C         140.0512  141.4415  166.6742 C.ar    1  UNL1       -0.0043
     14 C         142.4539  142.7387  169.5543 C.3     1  UNL1        0.4186
     15 F         143.0319  143.6017  170.6365 F       1  UNL1       -0.1659
     16 F         143.7004  141.9044  169.5538 F       1  UNL1       -0.1659
     17 F         141.2074  143.5731  169.5547 F       1  UNL1       -0.1659
     18 C         143.5457  138.3028  162.3029 C.3     1  UNL1        0.0294
     19 C         143.9979  139.2527  161.2337 C.3     1  UNL1        0.0666
     20 S         143.8220  140.7307  161.4202 S.3     1  UNL1       -0.0756
     21 C         140.5362  142.4493  162.5669 C.ar    1  UNL1        0.2013
     22 N         140.1355  141.9282  161.2187 N.ar    1  UNL1       -0.1250
     23 N         141.3175  141.2210  160.6250 N.ar    1  UNL1       -0.1220
     24 C         142.4489  141.3050  161.6064 C.ar    1  UNL1        0.1933
     25 N         141.9659  142.0642  162.8065 N.ar    1  UNL1       -0.2860
     26 C         142.7714  142.3823  164.0313 C.3     1  UNL1        0.1341
     27 C         137.4176  141.7875  163.2643 C.3     1  UNL1        0.0344
     28 C         138.2275  142.9161  163.8306 C.ar    1  UNL1        0.0189
     29 C         137.7459  143.9385  164.8168 C.ar    1  UNL1        0.0395
     30 C         138.8818  144.8746  165.1058 C.ar    1  UNL1        0.1794
     31 O         140.0652  144.4307  164.2982 O.2     1  UNL1       -0.4476
     32 C         139.6608  143.2202  163.5101 C.ar    1  UNL1        0.1772
@<TRIPOS>BOND
     1    27    28    1
     2    28    29   ar
     3    29    30   ar
     4    30    31   ar
     5    31    32   ar
     6    32    21    1
     7    21    22   ar
     8    22    23   ar
     9    23    24   ar
    10    24    20    1
    11    20    19    1
    12    19    18    1
    13    18     1    1
    14     1     2    1
    15     2     3    1
    16     4     3    1
    17     4     5    1
    18     5     6    1
    19     6     8    1
    20     8     9   ar
    21     9    10   ar
    22    10    11   ar
    23    11    14    1
    24    14    15    1
    25    14    16    1
    26    14    17    1
    27    11    12   ar
    28    12    13   ar
    29     6     7    1
    30    24    25   ar
    31    25    26    1
    32    32    28   ar
    33    25    21   ar
    34     7     2    1
    35     6     4    1
    36    13     8   ar
@<TRIPOS>MOLECULE
*****
 32 36 0 0 0
SMALL
GASTEIGER

@<TRIPOS>ATOM
      1 C         144.1179  138.9823  163.1315 C.3     1  UNL1        0.0730
      2 N         144.2303  140.3183  163.8042 N.3     1  UNL1       -0.2724
      3 C         145.1790  141.4177  163.4283 C.3     1  UNL1        0.0724
      4 C         144.9488  142.5683  164.3628 C.3     1  UNL1        0.0214
      5 C         144.5008  143.5310  165.4221 C.3     1  UNL1        0.0072
      6 C         143.8579  142.1799  165.3163 C.3     1  UNL1        0.0350
      7 C         143.4139  140.7894  164.9710 C.3     1  UNL1        0.0761
      8 C         142.9071  142.3686  166.4609 C.ar    1  UNL1       -0.0215
      9 C         141.4430  142.5591  166.1961 C.ar    1  UNL1       -0.0043
     10 C         140.4920  142.7477  167.3408 C.ar    1  UNL1        0.0035
     11 C         141.0053  142.7458  168.7503 C.ar    1  UNL1        0.0714
     12 C         142.4695  142.5553  169.0151 C.ar    1  UNL1        0.0035
     13 C         143.4203  142.3667  167.8704 C.ar    1  UNL1       -0.0043
     14 C         140.0544  142.9345  169.8949 C.3     1  UNL1        0.4186
     15 F         139.1036  143.1231  171.0396 F       1  UNL1       -0.1659
     16 F         140.4886  144.3648  170.0199 F       1  UNL1       -0.1659
     17 F         139.6203  141.5041  169.7700 F       1  UNL1       -0.1659
     18 C         143.9543  138.9038  161.6425 C.3     1  UNL1        0.0294
     19 C         143.0426  137.8755  161.0413 C.3     1  UNL1        0.0666
     20 S         141.5755  138.1593  160.9095 S.3     1  UNL1       -0.0756
     21 C         139.8724  141.1093  162.7702 C.ar    1  UNL1        0.2013
     22 N         139.8928  140.0622  163.8441 N.ar    1  UNL1       -0.1250
     23 N         140.5332  138.8298  163.2778 N.ar    1  UNL1       -0.1220
     24 C         140.9087  139.1151  161.8539 C.ar    1  UNL1        0.1933
     25 N         140.5003  140.5239  161.5402 N.ar    1  UNL1       -0.2860
     26 C         140.6870  141.2243  160.2269 C.3     1  UNL1        0.1341
     27 C         141.6141  143.8686  162.8168 C.3     1  UNL1        0.0344
     28 C         140.1215  143.7662  162.9245 C.ar    1  UNL1        0.0189
     29 C         139.1674  144.9141  163.0724 C.ar    1  UNL1        0.0395
     30 C         137.7771  144.3553  163.1424 C.ar    1  UNL1        0.1794
     31 O         137.8720  142.8620  163.0377 O.2     1  UNL1       -0.4476
     32 C         139.3209  142.4979  162.9030 C.ar    1  UNL1        0.1772
@<TRIPOS>BOND
     1    27    28    1
     2    28    29   ar
     3    29    30   ar
     4    30    31   ar
     5    31    32   ar
     6    32    21    1
     7    21    22   ar
     8    22    23   ar
     9    23    24   ar
    10    24    20    1
    11    20    19    1
    12    19    18    1
    13    18     1    1
    14     1     2    1
    15     2     3    1
    16     4     3    1
    17     4     5    1
    18     5     6    1
    19     6     8    1
    20     8     9   ar
    21     9    10   ar
    22    10    11   ar
    23    11    14    1
    24    14    15    1
    25    14    16    1
    26    14    17    1
    27    11    12   ar
    28    12    13   ar
    29     6     7    1
    30    24    25   ar
    31    25    26    1
    32    32    28   ar
    33    25    21   ar
    34     7     2    1
    35     6     4    1
    36    13     8   ar
@<TRIPOS>MOLECULE
*****
 32 36 0 0 0
SMALL
GASTEIGER

@<TRIPOS>ATOM
      1 C         138.2608  144.4999  162.8374 C.3     1  UNL1        0.0730
      2 N         138.2349  143.1300  163.4479 N.3     1  UNL1       -0.2724
      3 C         137.5459  141.9246  162.8803 C.3     1  UNL1        0.0724
      4 C         137.7786  140.7746  163.8148 C.3     1  UNL1        0.0214
      5 C         138.1726  139.8357  164.9162 C.3     1  UNL1        0.0072
      6 C         138.6114  141.2693  164.9601 C.3     1  UNL1        0.0350
      7 C         138.8934  142.7250  164.7334 C.3     1  UNL1        0.0761
      8 C         139.3617  141.1641  166.2547 C.ar    1  UNL1       -0.0215
      9 C         140.2778  142.2719  166.6828 C.ar    1  UNL1       -0.0043
     10 C         141.0282  142.1667  167.9774 C.ar    1  UNL1        0.0035
     11 C         140.8623  140.9535  168.8439 C.ar    1  UNL1        0.0714
     12 C         139.9461  139.8456  168.4158 C.ar    1  UNL1        0.0035
     13 C         139.1959  139.9509  167.1212 C.ar    1  UNL1       -0.0043
     14 C         141.6126  140.8483  170.1385 C.3     1  UNL1        0.4186
     15 F         142.3629  140.7430  171.4331 F       1  UNL1       -0.1659
     16 F         141.9248  139.4117  169.8408 F       1  UNL1       -0.1659
     17 F         141.3004  142.2849  170.4363 F       1  UNL1       -0.1659
     18 C         139.5502  145.2623  162.7601 C.3     1  UNL1        0.0294
     19 C         140.3057  145.3289  161.4660 C.3     1  UNL1        0.0666
     20 S         141.4921  144.4384  161.2435 S.3     1  UNL1       -0.0756
     21 C         141.7781  141.0992  163.2014 C.ar    1  UNL1        0.2013
     22 N         142.5917  142.0141  164.0682 N.ar    1  UNL1       -0.1250
     23 N         142.5836  143.3762  163.4402 N.ar    1  UNL1       -0.1220
     24 C         141.7650  143.3033  162.1854 C.ar    1  UNL1        0.1933
     25 N         141.2672  141.8960  162.0378 N.ar    1  UNL1       -0.2860
     26 C         140.4092  141.3768  160.9224 C.3     1  UNL1        0.1341
     27 C         142.6626  139.4280  165.8612 C.3     1  UNL1        0.0344
     28 C         141.9272  138.8751  164.6765 C.ar    1  UNL1        0.0189
     29 C         141.4693  137.4568  164.5064 C.ar    1  UNL1        0.0395
     30 C         140.7797  137.3485  163.1787 C.ar    1  UNL1        0.1794
     31 O         140.8115  138.6997  162.5283 O.2     1  UNL1       -0.4476
     32 C         141.5207  139.6432  163.4540 C.ar    1  UNL1        0.1772
@<TRIPOS>BOND
     1    27    28    1
     2    28    29   ar
     3    29    30   ar
     4    30    31   ar
     5    31    32   ar
     6    32    21    1
     7    21    22   ar
     8    22    23   ar
     9    23    24   ar
    10    24    20    1
    11    20    19    1
    12    19    18    1
    13    18     1    1
    14     1     2    1
    15     2     3    1
    16     4     3    1
    17     4     5    1
    18     5     6    1
    19     6     8    1
    20     8     9   ar
    21     9    10   ar
    22    10    11   ar
    23    11    14    1
    24    14    15    1
    25    14    16    1
    26    14    17    1
    27    11    12   ar
    28    12    13   ar
    29     6     7    1
    30    24    25   ar
    31    25    26    1
    32    32    28   ar
    33    25    21   ar
    34     7     2    1
    35     6     4    1
    36    13     8   ar
