@<TRIPOS>MOLECULE
*****
 37 40 0 0 0
SMALL
GASTEIGER

@<TRIPOS>ATOM
      1 C         139.1643  142.6750  160.0172 C.ar    1  UNL1        0.0690
      2 C         138.2293  141.6837  159.3903 C.ar    1  UNL1        0.0275
      3 C         138.0846  142.0363  157.9395 C.ar    1  UNL1        0.1140
      4 N         138.9303  143.2454  157.6697 N.ar    1  UNL1       -0.3223
      5 C         139.5976  143.6402  158.9538 C.ar    1  UNL1        0.0717
      6 C         140.5135  144.8275  158.9889 C.3     1  UNL1        0.1857
      7 O         140.7622  145.6201  157.7399 O.3     1  UNL1       -0.3454
      8 C         140.0949  145.2253  156.4559 C.3     1  UNL1        0.1671
      9 C         139.1789  144.0380  156.4208 C.3     1  UNL1        0.1379
     10 N         139.3041  143.9001  162.3041 N.am    1  UNL1       -0.2987
     11 C         139.5912  142.6973  161.4550 C.2     1  UNL1        0.2472
     12 O         140.3052  141.5169  162.0437 O.2     1  UNL1       -0.2701
     13 H         138.8354  144.6749  161.9177 H       1  UNL1        0.1500
     14 C         139.7310  143.9223  163.7419 C.3     1  UNL1        0.0943
     15 C         141.1892  143.9665  164.0907 C.ar    1  UNL1       -0.0045
     16 C         141.7888  142.8896  164.9457 C.ar    1  UNL1       -0.0027
     17 C         143.2470  142.9338  165.2945 C.ar    1  UNL1       -0.0003
     18 C         144.1056  144.0548  164.7884 C.ar    1  UNL1       -0.0000
     19 C         143.5060  145.1316  163.9334 C.ar    1  UNL1       -0.0003
     20 C         142.0478  145.0875  163.5846 C.ar    1  UNL1       -0.0027
     21 C         138.4760  145.1189  165.6765 C.3     1  UNL1        0.0021
     22 C         138.6996  143.9004  164.8308 C.3     1  UNL1        0.0241
     23 C         137.2422  141.3076  156.9349 C.2     1  UNL1        0.2619
     24 O         137.6211  139.9224  156.5020 O.2     1  UNL1       -0.2686
     25 N         136.0207  141.9642  156.3631 N.am    1  UNL1       -0.2975
     26 H         135.7719  142.8734  156.6472 H       1  UNL1        0.1500
     27 C         135.1782  141.2356  155.3584 C.3     1  UNL1        0.0959
     28 C         133.8684  140.6338  155.7733 C.ar    1  UNL1        0.0149
     29 C         133.8366  139.2837  156.4261 C.ar    1  UNL1        0.0036
     30 C         132.5267  138.6820  156.8411 C.ar    1  UNL1        0.0574
     31 C         131.2487  139.4304  156.6033 C.ar    1  UNL1        0.2250
     32 N         131.2805  140.7805  155.9505 N.ar    1  UNL1       -0.2104
     33 C         132.5904  141.3822  155.5355 C.ar    1  UNL1        0.0993
     34 O         129.9388  138.8287  157.0182 O.3     1  UNL1       -0.4561
     35 C         129.7939  138.2120  158.3779 C.3     1  UNL1        0.2542
     36 C         135.6458  141.1086  153.9388 C.3     1  UNL1        0.0242
     37 C         135.8522  139.7508  153.3358 C.3     1  UNL1        0.0021
@<TRIPOS>BOND
     1    21    22    1
     2    14    22    1
     3    14    10    1
     4    10    11   am
     5    11    12    2
     6    11     1    1
     7     1     2   ar
     8     2     3   ar
     9     3    23    1
    10    23    24    2
    11    23    25   am
    12    25    27    1
    13    27    36    1
    14    36    37    1
    15    27    28    1
    16    28    29   ar
    17    29    30   ar
    18    30    31   ar
    19    31    34    1
    20    34    35    1
    21    31    32   ar
    22    32    33   ar
    23     3     4   ar
    24     4     5   ar
    25     5     6    1
    26     6     7    1
    27     7     8    1
    28     8     9    1
    29    14    15    1
    30    15    16   ar
    31    16    17   ar
    32    17    18   ar
    33    18    19   ar
    34    19    20   ar
    35     5     1   ar
    36    20    15   ar
    37    33    28   ar
    38     9     4    1
    39    10    13    1
    40    25    26    1
@<TRIPOS>MOLECULE
*****
 37 40 0 0 0
SMALL
GASTEIGER

@<TRIPOS>ATOM
      1 C         142.3081  139.6391  162.5888 C.ar    1  UNL1        0.0690
      2 C         142.8121  139.3701  161.2019 C.ar    1  UNL1        0.0275
      3 C         141.6926  138.7588  160.4125 C.ar    1  UNL1        0.1140
      4 N         140.4968  138.6500  161.3115 N.ar    1  UNL1       -0.3223
      5 C         140.8772  139.1941  162.6566 C.ar    1  UNL1        0.0717
      6 C         139.8716  139.2140  163.7693 C.3     1  UNL1        0.1857
      7 O         138.4855  138.6898  163.5370 O.3     1  UNL1       -0.3454
      8 C         138.1051  138.1458  162.1918 C.3     1  UNL1        0.1671
      9 C         139.1108  138.1259  161.0791 C.3     1  UNL1        0.1379
     10 N         142.4824  141.3141  164.5673 N.am    1  UNL1       -0.2987
     11 C         143.0966  140.2465  163.7111 C.2     1  UNL1        0.2472
     12 O         144.4992  139.7863  163.9772 O.2     1  UNL1       -0.2701
     13 H         141.5618  141.6162  164.3927 H       1  UNL1        0.1500
     14 C         143.2709  141.9215  165.6895 C.3     1  UNL1        0.0943
     15 C         143.0909  141.4180  167.0909 C.ar    1  UNL1       -0.0045
     16 C         142.6625  140.0004  167.3294 C.ar    1  UNL1       -0.0027
     17 C         142.4826  139.4968  168.7308 C.ar    1  UNL1       -0.0003
     18 C         142.7310  140.4109  169.8938 C.ar    1  UNL1       -0.0000
     19 C         143.1594  141.8286  169.6554 C.ar    1  UNL1       -0.0003
     20 C         143.3394  142.3321  168.2540 C.ar    1  UNL1       -0.0027
     21 C         143.9323  144.0453  164.3473 C.3     1  UNL1        0.0021
     22 C         144.2393  143.0324  165.4102 C.3     1  UNL1        0.0241
     23 C         141.7575  138.3313  158.9761 C.2     1  UNL1        0.2619
     24 O         140.7034  138.7848  158.0102 O.2     1  UNL1       -0.2686
     25 N         142.8767  137.4503  158.5056 N.am    1  UNL1       -0.2975
     26 H         143.5687  137.1526  159.1396 H       1  UNL1        0.1500
     27 C         142.9416  137.0228  157.0693 C.3     1  UNL1        0.0959
     28 C         142.6814  135.5925  156.7000 C.ar    1  UNL1        0.0149
     29 C         141.8558  135.2686  155.4902 C.ar    1  UNL1        0.0036
     30 C         141.5956  133.8382  155.1209 C.ar    1  UNL1        0.0574
     31 C         142.1610  132.7318  155.9613 C.ar    1  UNL1        0.2250
     32 N         142.9866  133.0557  157.1710 N.ar    1  UNL1       -0.2104
     33 C         143.2468  134.4861  157.5403 C.ar    1  UNL1        0.0993
     34 O         141.9008  131.3015  155.5920 O.3     1  UNL1       -0.4561
     35 C         143.0309  130.4271  155.1359 C.3     1  UNL1        0.2542
     36 C         143.2668  138.0257  156.0024 C.3     1  UNL1        0.0242
     37 C         144.5706  137.9408  155.2655 C.3     1  UNL1        0.0021
@<TRIPOS>BOND
     1    21    22    1
     2    14    22    1
     3    14    10    1
     4    10    11   am
     5    11    12    2
     6    11     1    1
     7     1     2   ar
     8     2     3   ar
     9     3    23    1
    10    23    24    2
    11    23    25   am
    12    25    27    1
    13    27    36    1
    14    36    37    1
    15    27    28    1
    16    28    29   ar
    17    29    30   ar
    18    30    31   ar
    19    31    34    1
    20    34    35    1
    21    31    32   ar
    22    32    33   ar
    23     3     4   ar
    24     4     5   ar
    25     5     6    1
    26     6     7    1
    27     7     8    1
    28     8     9    1
    29    14    15    1
    30    15    16   ar
    31    16    17   ar
    32    17    18   ar
    33    18    19   ar
    34    19    20   ar
    35     5     1   ar
    36    20    15   ar
    37    33    28   ar
    38     9     4    1
    39    10    13    1
    40    25    26    1
@<TRIPOS>MOLECULE
*****
 37 40 0 0 0
SMALL
GASTEIGER

@<TRIPOS>ATOM
      1 C         142.9015  139.5684  160.6001 C.ar    1  UNL1        0.0690
      2 C         142.5836  138.3666  159.7606 C.ar    1  UNL1        0.0275
      3 C         143.0574  138.6387  158.3637 C.ar    1  UNL1        0.1140
      4 N         143.6682  140.0085  158.3398 N.ar    1  UNL1       -0.3223
      5 C         143.5719  140.5831  159.7220 C.ar    1  UNL1        0.0717
      6 C         144.1070  141.9560  160.0025 C.3     1  UNL1        0.1857
      7 O         144.7384  142.7543  158.9007 O.3     1  UNL1       -0.3454
      8 C         144.8347  142.1797  157.5185 C.3     1  UNL1        0.1671
      9 C         144.2996  140.8068  157.2380 C.3     1  UNL1        0.1379
     10 N         142.8540  138.5906  163.0068 N.am    1  UNL1       -0.2987
     11 C         142.6018  139.7275  162.0612 C.2     1  UNL1        0.2472
     12 O         142.0499  141.0233  162.5769 O.2     1  UNL1       -0.2701
     13 H         143.2163  137.7400  162.6684 H       1  UNL1        0.1500
     14 C         142.5543  138.7497  164.4679 C.3     1  UNL1        0.0943
     15 C         141.1352  138.7044  164.9517 C.ar    1  UNL1       -0.0045
     16 C         140.5723  139.8541  165.7336 C.ar    1  UNL1       -0.0027
     17 C         139.1532  139.8089  166.2173 C.ar    1  UNL1       -0.0003
     18 C         138.2970  138.6139  165.9192 C.ar    1  UNL1       -0.0000
     19 C         138.8598  137.4642  165.1373 C.ar    1  UNL1       -0.0003
     20 C         140.2790  137.5095  164.6535 C.ar    1  UNL1       -0.0027
     21 C         143.8620  137.9931  166.5814 C.3     1  UNL1        0.0021
     22 C         143.6737  138.9540  165.4451 C.3     1  UNL1        0.0241
     23 C         142.9409  137.7048  157.1956 C.2     1  UNL1        0.2619
     24 O         144.0605  137.6023  156.2027 O.2     1  UNL1       -0.2686
     25 N         141.7046  136.8734  157.0204 N.am    1  UNL1       -0.2975
     26 H         140.9698  136.9407  157.6721 H       1  UNL1        0.1500
     27 C         141.5881  135.9396  155.8523 C.3     1  UNL1        0.0959
     28 C         141.9632  134.4954  156.0063 C.ar    1  UNL1        0.0149
     29 C         141.2694  133.4488  155.1859 C.ar    1  UNL1        0.0036
     30 C         141.6445  132.0046  155.3399 C.ar    1  UNL1        0.0574
     31 C         142.7134  131.6071  156.3144 C.ar    1  UNL1        0.2250
     32 N         143.4071  132.6538  157.1348 N.ar    1  UNL1       -0.2104
     33 C         143.0321  134.0979  156.9808 C.ar    1  UNL1        0.0993
     34 O         143.0884  130.1630  156.4684 O.3     1  UNL1       -0.4561
     35 C         143.9885  129.7373  157.5902 C.3     1  UNL1        0.2542
     36 C         141.0966  136.4500  154.5303 C.3     1  UNL1        0.0242
     37 C         142.0564  136.6286  153.3915 C.3     1  UNL1        0.0021
@<TRIPOS>BOND
     1    21    22    1
     2    14    22    1
     3    14    10    1
     4    10    11   am
     5    11    12    2
     6    11     1    1
     7     1     2   ar
     8     2     3   ar
     9     3    23    1
    10    23    24    2
    11    23    25   am
    12    25    27    1
    13    27    36    1
    14    36    37    1
    15    27    28    1
    16    28    29   ar
    17    29    30   ar
    18    30    31   ar
    19    31    34    1
    20    34    35    1
    21    31    32   ar
    22    32    33   ar
    23     3     4   ar
    24     4     5   ar
    25     5     6    1
    26     6     7    1
    27     7     8    1
    28     8     9    1
    29    14    15    1
    30    15    16   ar
    31    16    17   ar
    32    17    18   ar
    33    18    19   ar
    34    19    20   ar
    35     5     1   ar
    36    20    15   ar
    37    33    28   ar
    38     9     4    1
    39    10    13    1
    40    25    26    1
@<TRIPOS>MOLECULE
*****
 37 40 0 0 0
SMALL
GASTEIGER

@<TRIPOS>ATOM
      1 C         140.3834  139.5242  160.4352 C.ar    1  UNL1        0.0690
      2 C         141.3519  138.5454  159.8403 C.ar    1  UNL1        0.0275
      3 C         141.0678  138.4473  158.3707 C.ar    1  UNL1        0.1140
      4 N         139.9238  139.3654  158.0574 N.ar    1  UNL1       -0.3223
      5 C         139.5008  140.0310  159.3334 C.ar    1  UNL1        0.0717
      6 C         138.3666  141.0125  159.3270 C.3     1  UNL1        0.1857
      7 O         137.6554  141.3285  158.0447 O.3     1  UNL1       -0.3454
      8 C         138.0784  140.6630  156.7688 C.3     1  UNL1        0.1671
      9 C         139.2126  139.6814  156.7751 C.3     1  UNL1        0.1379
     10 N         139.0410  139.7199  162.6510 N.am    1  UNL1       -0.2987
     11 C         140.3103  139.9257  161.8786 C.2     1  UNL1        0.2472
     12 O         141.5064  140.5329  162.5497 O.2     1  UNL1       -0.2701
     13 H         138.2559  139.3214  162.2106 H       1  UNL1        0.1500
     14 C         138.9679  140.1214  164.0945 C.3     1  UNL1        0.0943
     15 C         138.8673  141.5713  164.4655 C.ar    1  UNL1       -0.0045
     16 C         137.7332  142.4023  163.9427 C.ar    1  UNL1       -0.0027
     17 C         137.6325  143.8522  164.3137 C.ar    1  UNL1       -0.0003
     18 C         138.6660  144.4711  165.2075 C.ar    1  UNL1       -0.0000
     19 C         139.8002  143.6402  165.7302 C.ar    1  UNL1       -0.0003
     20 C         139.9008  142.1903  165.3592 C.ar    1  UNL1       -0.0027
     21 C         138.0026  139.1229  166.2901 C.3     1  UNL1        0.0021
     22 C         138.9954  139.0730  165.1668 C.3     1  UNL1        0.0241
     23 C         141.7994  137.5828  157.3871 C.2     1  UNL1        0.2619
     24 O         143.2820  137.7316  157.2151 O.2     1  UNL1       -0.2686
     25 N         141.0482  136.5694  156.5753 N.am    1  UNL1       -0.2975
     26 H         140.0751  136.4717  156.6881 H       1  UNL1        0.1500
     27 C         141.7797  135.7049  155.5917 C.3     1  UNL1        0.0959
     28 C         142.2212  134.3270  155.9873 C.ar    1  UNL1        0.0149
     29 C         141.5865  133.1251  155.3528 C.ar    1  UNL1        0.0036
     30 C         142.0280  131.7472  155.7484 C.ar    1  UNL1        0.0574
     31 C         143.1041  131.5712  156.7784 C.ar    1  UNL1        0.2250
     32 N         143.7388  132.7731  157.4129 N.ar    1  UNL1       -0.2104
     33 C         143.2973  134.1510  157.0173 C.ar    1  UNL1        0.0993
     34 O         143.5456  130.1933  157.1740 O.3     1  UNL1       -0.4561
     35 C         144.5936  130.0164  158.2324 C.3     1  UNL1        0.2542
     36 C         142.0698  136.2184  154.2125 C.3     1  UNL1        0.0242
     37 C         141.2003  137.2819  153.6100 C.3     1  UNL1        0.0021
@<TRIPOS>BOND
     1    21    22    1
     2    14    22    1
     3    14    10    1
     4    10    11   am
     5    11    12    2
     6    11     1    1
     7     1     2   ar
     8     2     3   ar
     9     3    23    1
    10    23    24    2
    11    23    25   am
    12    25    27    1
    13    27    36    1
    14    36    37    1
    15    27    28    1
    16    28    29   ar
    17    29    30   ar
    18    30    31   ar
    19    31    34    1
    20    34    35    1
    21    31    32   ar
    22    32    33   ar
    23     3     4   ar
    24     4     5   ar
    25     5     6    1
    26     6     7    1
    27     7     8    1
    28     8     9    1
    29    14    15    1
    30    15    16   ar
    31    16    17   ar
    32    17    18   ar
    33    18    19   ar
    34    19    20   ar
    35     5     1   ar
    36    20    15   ar
    37    33    28   ar
    38     9     4    1
    39    10    13    1
    40    25    26    1
@<TRIPOS>MOLECULE
*****
 37 40 0 0 0
SMALL
GASTEIGER

@<TRIPOS>ATOM
      1 C         142.1983  138.0568  158.2463 C.ar    1  UNL1        0.0690
      2 C         143.0769  138.4234  159.4054 C.ar    1  UNL1        0.0275
      3 C         142.3239  139.3904  160.2702 C.ar    1  UNL1        0.1140
      4 N         140.9799  139.6215  159.6455 N.ar    1  UNL1       -0.3223
      5 C         140.9022  138.7972  158.3947 C.ar    1  UNL1        0.0717
      6 C         139.6614  138.8274  157.5524 C.3     1  UNL1        0.1857
      7 O         138.4983  139.6818  157.9610 O.3     1  UNL1       -0.3454
      8 C         138.5759  140.5061  159.2118 C.3     1  UNL1        0.1671
      9 C         139.8167  140.4759  160.0541 C.3     1  UNL1        0.1379
     10 N         141.6646  135.9458  156.8288 N.am    1  UNL1       -0.2987
     11 C         142.5533  137.1151  157.1340 C.2     1  UNL1        0.2472
     12 O         143.7970  137.3425  156.3270 O.2     1  UNL1       -0.2701
     13 H         140.8483  135.7965  157.3585 H       1  UNL1        0.1500
     14 C         142.0196  135.0041  155.7166 C.3     1  UNL1        0.0943
     15 C         142.9651  133.8674  155.9693 C.ar    1  UNL1       -0.0045
     16 C         143.1300  132.7865  154.9424 C.ar    1  UNL1       -0.0027
     17 C         144.0755  131.6498  155.1952 C.ar    1  UNL1       -0.0003
     18 C         144.8561  131.5940  156.4748 C.ar    1  UNL1       -0.0000
     19 C         144.6912  132.6749  157.5017 C.ar    1  UNL1       -0.0003
     20 C         143.7457  133.8116  157.2490 C.ar    1  UNL1       -0.0027
     21 C         142.1257  136.0731  153.3511 C.3     1  UNL1        0.0021
     22 C         141.4292  135.1992  154.3516 C.3     1  UNL1        0.0241
     23 C         142.8266  140.0165  161.5372 C.2     1  UNL1        0.2619
     24 O         142.7721  141.5053  161.7112 O.2     1  UNL1       -0.2686
     25 N         143.3839  139.1536  162.6304 N.am    1  UNL1       -0.2975
     26 H         143.4197  138.1764  162.5163 H       1  UNL1        0.1500
     27 C         143.8866  139.7796  163.8974 C.3     1  UNL1        0.0959
     28 C         142.9963  139.8529  165.1024 C.ar    1  UNL1        0.0149
     29 C         143.4327  139.2319  166.3962 C.ar    1  UNL1        0.0036
     30 C         142.5424  139.3051  167.6012 C.ar    1  UNL1        0.0574
     31 C         141.2157  139.9994  167.5123 C.ar    1  UNL1        0.2250
     32 N         140.7793  140.6205  166.2186 N.ar    1  UNL1       -0.2104
     33 C         141.6696  140.5472  165.0136 C.ar    1  UNL1        0.0993
     34 O         140.3254  140.0727  168.7173 O.3     1  UNL1       -0.4561
     35 C         140.8922  139.8295  170.0846 C.3     1  UNL1        0.2542
     36 C         145.2796  140.3324  163.9594 C.3     1  UNL1        0.0242
     37 C         145.4985  141.8164  163.9545 C.3     1  UNL1        0.0021
@<TRIPOS>BOND
     1    21    22    1
     2    14    22    1
     3    14    10    1
     4    10    11   am
     5    11    12    2
     6    11     1    1
     7     1     2   ar
     8     2     3   ar
     9     3    23    1
    10    23    24    2
    11    23    25   am
    12    25    27    1
    13    27    36    1
    14    36    37    1
    15    27    28    1
    16    28    29   ar
    17    29    30   ar
    18    30    31   ar
    19    31    34    1
    20    34    35    1
    21    31    32   ar
    22    32    33   ar
    23     3     4   ar
    24     4     5   ar
    25     5     6    1
    26     6     7    1
    27     7     8    1
    28     8     9    1
    29    14    15    1
    30    15    16   ar
    31    16    17   ar
    32    17    18   ar
    33    18    19   ar
    34    19    20   ar
    35     5     1   ar
    36    20    15   ar
    37    33    28   ar
    38     9     4    1
    39    10    13    1
    40    25    26    1
@<TRIPOS>MOLECULE
*****
 37 40 0 0 0
SMALL
GASTEIGER

@<TRIPOS>ATOM
      1 C         141.6179  138.5230  159.8157 C.ar    1  UNL1        0.0690
      2 C         142.7818  139.0601  160.5947 C.ar    1  UNL1        0.0275
      3 C         142.2720  139.5300  161.9249 C.ar    1  UNL1        0.1140
      4 N         140.7930  139.2833  161.9679 N.ar    1  UNL1       -0.3223
      5 C         140.3888  138.6609  160.6644 C.ar    1  UNL1        0.0717
      6 C         138.9537  138.3003  160.4185 C.3     1  UNL1        0.1857
      7 O         137.9229  138.5620  161.4763 O.3     1  UNL1       -0.3454
      8 C         138.3271  139.1843  162.7798 C.3     1  UNL1        0.1671
      9 C         139.7622  139.5450  163.0256 C.3     1  UNL1        0.1379
     10 N         142.9311  137.2949  157.9401 N.am    1  UNL1       -0.2987
     11 C         141.6734  137.9487  158.4311 C.2     1  UNL1        0.2472
     12 O         140.4714  138.0282  157.5374 O.2     1  UNL1       -0.2701
     13 H         143.7200  137.2427  158.5267 H       1  UNL1        0.1500
     14 C         142.9865  136.7206  156.5555 C.3     1  UNL1        0.0943
     15 C         142.7022  135.2643  156.3356 C.ar    1  UNL1       -0.0045
     16 C         141.6759  134.8448  155.3253 C.ar    1  UNL1       -0.0027
     17 C         141.3915  133.3885  155.1054 C.ar    1  UNL1       -0.0003
     18 C         142.1335  132.3518  155.8958 C.ar    1  UNL1       -0.0000
     19 C         143.1597  132.7713  156.9061 C.ar    1  UNL1       -0.0003
     20 C         143.4441  134.2276  157.1260 C.ar    1  UNL1       -0.0027
     21 C         144.6949  138.2072  155.2822 C.3     1  UNL1        0.0021
     22 C         143.3264  137.6027  155.3909 C.3     1  UNL1        0.0241
     23 C         143.0963  140.1396  163.0198 C.2     1  UNL1        0.2619
     24 O         144.4448  139.5709  163.3486 O.2     1  UNL1       -0.2686
     25 N         142.5722  141.3179  163.7859 N.am    1  UNL1       -0.2975
     26 H         141.6871  141.6912  163.5701 H       1  UNL1        0.1500
     27 C         143.3966  141.9275  164.8808 C.3     1  UNL1        0.0959
     28 C         143.1959  141.4918  166.3020 C.ar    1  UNL1        0.0149
     29 C         143.1472  142.5128  167.3997 C.ar    1  UNL1        0.0036
     30 C         142.9465  142.0771  168.8209 C.ar    1  UNL1        0.0574
     31 C         142.7945  140.6203  169.1444 C.ar    1  UNL1        0.2250
     32 N         142.8431  139.5992  168.0467 N.ar    1  UNL1       -0.2104
     33 C         143.0438  140.0350  166.6255 C.ar    1  UNL1        0.0993
     34 O         142.5937  140.1846  170.5656 O.3     1  UNL1       -0.4561
     35 C         141.6945  140.9721  171.4717 C.3     1  UNL1        0.2542
     36 C         144.4216  142.9728  164.5544 C.3     1  UNL1        0.0242
     37 C         143.9900  144.3758  164.2456 C.3     1  UNL1        0.0021
@<TRIPOS>BOND
     1    21    22    1
     2    14    22    1
     3    14    10    1
     4    10    11   am
     5    11    12    2
     6    11     1    1
     7     1     2   ar
     8     2     3   ar
     9     3    23    1
    10    23    24    2
    11    23    25   am
    12    25    27    1
    13    27    36    1
    14    36    37    1
    15    27    28    1
    16    28    29   ar
    17    29    30   ar
    18    30    31   ar
    19    31    34    1
    20    34    35    1
    21    31    32   ar
    22    32    33   ar
    23     3     4   ar
    24     4     5   ar
    25     5     6    1
    26     6     7    1
    27     7     8    1
    28     8     9    1
    29    14    15    1
    30    15    16   ar
    31    16    17   ar
    32    17    18   ar
    33    18    19   ar
    34    19    20   ar
    35     5     1   ar
    36    20    15   ar
    37    33    28   ar
    38     9     4    1
    39    10    13    1
    40    25    26    1
@<TRIPOS>MOLECULE
*****
 37 40 0 0 0
SMALL
GASTEIGER

@<TRIPOS>ATOM
      1 C         141.8738  139.7806  160.7034 C.ar    1  UNL1        0.0690
      2 C         141.7147  138.6286  159.7560 C.ar    1  UNL1        0.0275
      3 C         142.5851  138.8869  158.5620 C.ar    1  UNL1        0.1140
      4 N         143.2820  140.1985  158.7713 N.ar    1  UNL1       -0.3223
      5 C         142.8424  140.7509  160.0948 C.ar    1  UNL1        0.0717
      6 C         143.3810  142.0660  160.5748 C.3     1  UNL1        0.1857
      7 O         144.3591  142.8287  159.7313 O.3     1  UNL1       -0.3454
      8 C         144.7987  142.2763  158.4078 C.3     1  UNL1        0.1671
      9 C         144.2601  140.9612  157.9278 C.3     1  UNL1        0.1379
     10 N         139.7430  140.3450  162.0787 N.am    1  UNL1       -0.2987
     11 C         141.1852  139.9353  162.0269 C.2     1  UNL1        0.2472
     12 O         141.9384  139.6803  163.2987 O.2     1  UNL1       -0.2701
     13 H         139.2486  140.5124  161.2440 H       1  UNL1        0.1500
     14 C         139.0544  140.4997  163.4023 C.3     1  UNL1        0.0943
     15 C         138.9796  141.8477  164.0558 C.ar    1  UNL1       -0.0045
     16 C         140.1203  142.3374  164.8979 C.ar    1  UNL1       -0.0027
     17 C         140.0455  143.6854  165.5514 C.ar    1  UNL1       -0.0003
     18 C         138.8300  144.5439  165.3629 C.ar    1  UNL1       -0.0000
     19 C         137.6893  144.0542  164.5209 C.ar    1  UNL1       -0.0003
     20 C         137.7641  142.7062  163.8673 C.ar    1  UNL1       -0.0027
     21 C         138.3732  139.2387  165.5692 C.3     1  UNL1        0.0021
     22 C         138.4406  139.3062  164.0723 C.3     1  UNL1        0.0241
     23 C         142.7326  137.9908  157.3681 C.2     1  UNL1        0.2619
     24 O         143.9241  138.1309  156.4678 O.2     1  UNL1       -0.2686
     25 N         141.6884  136.9545  157.0745 N.am    1  UNL1       -0.2975
     26 H         140.9064  136.8626  157.6654 H       1  UNL1        0.1500
     27 C         141.8359  136.0585  155.8806 C.3     1  UNL1        0.0959
     28 C         142.6190  134.7839  155.9916 C.ar    1  UNL1        0.0149
     29 C         142.5706  133.7750  154.8828 C.ar    1  UNL1        0.0036
     30 C         143.3537  132.5004  154.9938 C.ar    1  UNL1        0.0574
     31 C         144.1851  132.2349  156.2137 C.ar    1  UNL1        0.2250
     32 N         144.2336  133.2438  157.3226 N.ar    1  UNL1       -0.2104
     33 C         143.4505  134.5184  157.2115 C.ar    1  UNL1        0.0993
     34 O         144.9682  130.9603  156.3247 O.3     1  UNL1       -0.4561
     35 C         144.9405  129.9630  155.2047 C.3     1  UNL1        0.2542
     36 C         141.2004  136.4370  154.5758 C.3     1  UNL1        0.0242
     37 C         141.9831  137.2112  153.5570 C.3     1  UNL1        0.0021
@<TRIPOS>BOND
     1    21    22    1
     2    14    22    1
     3    14    10    1
     4    10    11   am
     5    11    12    2
     6    11     1    1
     7     1     2   ar
     8     2     3   ar
     9     3    23    1
    10    23    24    2
    11    23    25   am
    12    25    27    1
    13    27    36    1
    14    36    37    1
    15    27    28    1
    16    28    29   ar
    17    29    30   ar
    18    30    31   ar
    19    31    34    1
    20    34    35    1
    21    31    32   ar
    22    32    33   ar
    23     3     4   ar
    24     4     5   ar
    25     5     6    1
    26     6     7    1
    27     7     8    1
    28     8     9    1
    29    14    15    1
    30    15    16   ar
    31    16    17   ar
    32    17    18   ar
    33    18    19   ar
    34    19    20   ar
    35     5     1   ar
    36    20    15   ar
    37    33    28   ar
    38     9     4    1
    39    10    13    1
    40    25    26    1
@<TRIPOS>MOLECULE
*****
 37 40 0 0 0
SMALL
GASTEIGER

@<TRIPOS>ATOM
      1 C         141.6896  140.0830  159.8029 C.ar    1  UNL1        0.0690
      2 C         141.5763  138.7789  159.0704 C.ar    1  UNL1        0.0275
      3 C         142.5770  138.7865  157.9530 C.ar    1  UNL1        0.1140
      4 N         143.3087  140.0953  157.9949 N.ar    1  UNL1       -0.3223
      5 C         142.7602  140.8966  159.1382 C.ar    1  UNL1        0.0717
      6 C         143.3066  142.2635  159.4263 C.3     1  UNL1        0.1857
      7 O         144.4013  142.8291  158.5711 O.3     1  UNL1       -0.3454
      8 C         144.9498  142.0279  157.4278 C.3     1  UNL1        0.1671
      9 C         144.4035  140.6610  157.1396 C.3     1  UNL1        0.1379
     10 N         139.3912  140.2811  160.9981 N.am    1  UNL1       -0.2987
     11 C         140.8752  140.5002  160.9914 C.2     1  UNL1        0.2472
     12 O         141.5446  141.1366  162.1733 O.2     1  UNL1       -0.2701
     13 H         138.9518  139.8634  160.2224 H       1  UNL1        0.1500
     14 C         138.5768  140.6983  162.1867 C.3     1  UNL1        0.0943
     15 C         138.5568  139.8440  163.4194 C.ar    1  UNL1       -0.0045
     16 C         138.1371  140.4332  164.7335 C.ar    1  UNL1       -0.0027
     17 C         138.1171  139.5788  165.9663 C.ar    1  UNL1       -0.0003
     18 C         138.5169  138.1354  165.8850 C.ar    1  UNL1       -0.0000
     19 C         138.9366  137.5463  164.5709 C.ar    1  UNL1       -0.0003
     20 C         138.9566  138.4006  163.3381 C.ar    1  UNL1       -0.0027
     21 C         138.4851  143.2890  162.0146 C.3     1  UNL1        0.0021
     22 C         137.7825  141.9699  162.1424 C.3     1  UNL1        0.0241
     23 C         142.8058  137.6797  156.9668 C.2     1  UNL1        0.2619
     24 O         144.1027  137.5990  156.2175 O.2     1  UNL1       -0.2686
     25 N         141.7377  136.6535  156.7298 N.am    1  UNL1       -0.2975
     26 H         140.8864  136.7064  157.2216 H       1  UNL1        0.1500
     27 C         141.9665  135.5467  155.7436 C.3     1  UNL1        0.0959
     28 C         142.7045  134.3097  156.1623 C.ar    1  UNL1        0.0149
     29 C         142.6250  133.0689  155.3233 C.ar    1  UNL1        0.0036
     30 C         143.3630  131.8320  155.7420 C.ar    1  UNL1        0.0574
     31 C         144.1804  131.8359  156.9998 C.ar    1  UNL1        0.2250
     32 N         144.2598  133.0767  157.8388 N.ar    1  UNL1       -0.2104
     33 C         143.5219  134.3136  157.4201 C.ar    1  UNL1        0.0993
     34 O         144.9184  130.5989  157.4185 O.3     1  UNL1       -0.4561
     35 C         144.2249  129.5542  158.2416 C.3     1  UNL1        0.2542
     36 C         141.4573  135.6769  154.3388 C.3     1  UNL1        0.0242
     37 C         142.0544  136.6980  153.4163 C.3     1  UNL1        0.0021
@<TRIPOS>BOND
     1    21    22    1
     2    14    22    1
     3    14    10    1
     4    10    11   am
     5    11    12    2
     6    11     1    1
     7     1     2   ar
     8     2     3   ar
     9     3    23    1
    10    23    24    2
    11    23    25   am
    12    25    27    1
    13    27    36    1
    14    36    37    1
    15    27    28    1
    16    28    29   ar
    17    29    30   ar
    18    30    31   ar
    19    31    34    1
    20    34    35    1
    21    31    32   ar
    22    32    33   ar
    23     3     4   ar
    24     4     5   ar
    25     5     6    1
    26     6     7    1
    27     7     8    1
    28     8     9    1
    29    14    15    1
    30    15    16   ar
    31    16    17   ar
    32    17    18   ar
    33    18    19   ar
    34    19    20   ar
    35     5     1   ar
    36    20    15   ar
    37    33    28   ar
    38     9     4    1
    39    10    13    1
    40    25    26    1
@<TRIPOS>MOLECULE
*****
 37 40 0 0 0
SMALL
GASTEIGER

@<TRIPOS>ATOM
      1 C         141.4842  142.3269  160.4021 C.ar    1  UNL1        0.0690
      2 C         141.7951  142.8350  159.0254 C.ar    1  UNL1        0.0275
      3 C         141.3218  144.2556  158.9379 C.ar    1  UNL1        0.1140
      4 N         140.7183  144.6256  160.2604 N.ar    1  UNL1       -0.3223
      5 C         140.8187  143.4336  161.1654 C.ar    1  UNL1        0.0717
      6 C         140.2912  143.5098  162.5674 C.3     1  UNL1        0.1857
      7 O         139.6634  144.7781  163.0646 O.3     1  UNL1       -0.3454
      8 C         139.5630  145.9701  162.1596 C.3     1  UNL1        0.1671
      9 C         140.0905  145.8939  160.7575 C.3     1  UNL1        0.1379
     10 N         143.2005  140.5630  161.2347 N.am    1  UNL1       -0.2987
     11 C         141.7858  140.9533  160.9240 C.2     1  UNL1        0.2472
     12 O         140.6729  139.9701  161.1351 O.2     1  UNL1       -0.2701
     13 H         143.9309  141.2083  161.0962 H       1  UNL1        0.1500
     14 C         143.5021  139.1894  161.7566 C.3     1  UNL1        0.0943
     15 C         143.4130  138.9096  163.2276 C.ar    1  UNL1       -0.0045
     16 C         142.1838  138.2642  163.7952 C.ar    1  UNL1       -0.0027
     17 C         142.0948  137.9844  165.2662 C.ar    1  UNL1       -0.0003
     18 C         143.2350  138.3502  166.1695 C.ar    1  UNL1       -0.0000
     19 C         144.4643  138.9957  165.6019 C.ar    1  UNL1       -0.0003
     20 C         144.5533  139.2754  164.1309 C.ar    1  UNL1       -0.0027
     21 C         142.8702  137.5047  159.8825 C.3     1  UNL1        0.0021
     22 C         143.8927  138.0956  160.8074 C.3     1  UNL1        0.0241
     23 C         141.4324  145.1495  157.7384 C.2     1  UNL1        0.2619
     24 O         142.4730  146.2291  157.7009 O.2     1  UNL1       -0.2686
     25 N         140.5023  144.9637  156.5762 N.am    1  UNL1       -0.2975
     26 H         139.8193  144.2551  156.6008 H       1  UNL1        0.1500
     27 C         140.6130  145.8576  155.3767 C.3     1  UNL1        0.0959
     28 C         139.9745  147.2148  155.3913 C.ar    1  UNL1        0.0149
     29 C         139.1080  147.6237  156.5454 C.ar    1  UNL1        0.0036
     30 C         138.4696  148.9809  156.5600 C.ar    1  UNL1        0.0574
     31 C         138.6976  149.9293  155.4205 C.ar    1  UNL1        0.2250
     32 N         139.5641  149.5205  154.2664 N.ar    1  UNL1       -0.2104
     33 C         140.2025  148.1632  154.2518 C.ar    1  UNL1        0.0993
     34 O         138.0591  151.2866  155.4351 O.3     1  UNL1       -0.4561
     35 C         138.6746  152.4133  154.6595 C.3     1  UNL1        0.2542
     36 C         141.3621  145.3941  154.1627 C.3     1  UNL1        0.0242
     37 C         142.8108  145.0209  154.2725 C.3     1  UNL1        0.0021
@<TRIPOS>BOND
     1    21    22    1
     2    14    22    1
     3    14    10    1
     4    10    11   am
     5    11    12    2
     6    11     1    1
     7     1     2   ar
     8     2     3   ar
     9     3    23    1
    10    23    24    2
    11    23    25   am
    12    25    27    1
    13    27    36    1
    14    36    37    1
    15    27    28    1
    16    28    29   ar
    17    29    30   ar
    18    30    31   ar
    19    31    34    1
    20    34    35    1
    21    31    32   ar
    22    32    33   ar
    23     3     4   ar
    24     4     5   ar
    25     5     6    1
    26     6     7    1
    27     7     8    1
    28     8     9    1
    29    14    15    1
    30    15    16   ar
    31    16    17   ar
    32    17    18   ar
    33    18    19   ar
    34    19    20   ar
    35     5     1   ar
    36    20    15   ar
    37    33    28   ar
    38     9     4    1
    39    10    13    1
    40    25    26    1
