@<TRIPOS>MOLECULE
*****
 34 38 0 0 0
SMALL
GASTEIGER

@<TRIPOS>ATOM
      1 N         142.0286  137.9961  164.0945 N.3     1  UNL1       -0.2723
      2 C         142.3471  138.2341  162.6481 C.3     1  UNL1        0.0735
      3 C         143.5287  139.0767  162.2691 C.3     1  UNL1        0.0331
      4 C         144.3919  139.6815  163.3365 C.3     1  UNL1        0.0570
      5 C         144.0734  139.4435  164.7829 C.3     1  UNL1        0.0331
      6 C         142.8918  138.6008  165.1618 C.3     1  UNL1        0.0735
      7 N         145.5735  140.5241  162.9575 N.3     1  UNL1       -0.2934
      8 H         145.6465  140.4886  161.9408 H       1  UNL1        0.1236
      9 C         145.6167  141.9727  163.3444 C.3     1  UNL1        0.1152
     10 C         144.4003  142.8326  163.1683 C.ar    1  UNL1        0.0782
     11 C         143.9202  143.1795  161.7902 C.ar    1  UNL1        0.0562
     12 C         142.7038  144.0395  161.6141 C.ar    1  UNL1        0.1752
     13 C         141.9676  144.5524  162.8161 C.ar    1  UNL1        0.1914
     14 C         142.4477  144.2055  164.1942 C.ar    1  UNL1        0.1384
     15 N         143.6640  143.3456  164.3703 N.ar    1  UNL1       -0.2434
     16 O         140.7512  145.4123  162.6400 O.3     1  UNL1       -0.4668
     17 C         140.2711  145.7593  161.2619 C.3     1  UNL1        0.2527
     18 C         141.0074  145.2463  160.0599 C.3     1  UNL1        0.2526
     19 O         142.2237  144.3864  160.2361 O.3     1  UNL1       -0.4683
     20 C         140.8470  137.1535  164.4735 C.3     1  UNL1        0.0769
     21 C         139.5807  137.8057  164.9438 C.3     1  UNL1        0.0476
     22 C         140.2021  141.8800  166.7503 C.ar    1  UNL1        0.2250
     23 C         139.6809  143.0989  166.0486 C.ar    1  UNL1        0.0593
     24 C         138.9524  142.9598  164.7447 C.ar    1  UNL1        0.0254
     25 C         138.7453  141.6017  164.1426 C.ar    1  UNL1        0.0990
     26 N         138.0168  141.4625  162.8388 N.ar    1  UNL1       -0.2400
     27 C         137.8096  140.1045  162.2366 C.ar    1  UNL1        0.1281
     28 C         138.3309  138.8854  162.9383 C.ar    1  UNL1        0.1567
     29 F         138.1238  137.5273  162.3361 F       1  UNL1       -0.2028
     30 C         139.0594  139.0246  164.2421 C.ar    1  UNL1        0.0274
     31 C         139.2665  140.3828  164.8443 C.ar    1  UNL1        0.1002
     32 N         139.9950  140.5219  166.1481 N.ar    1  UNL1       -0.2104
     33 C         140.5335  143.0920  169.0243 C.3     1  UNL1        0.2542
     34 O         140.9306  142.0192  168.0541 O.3     1  UNL1       -0.4561
@<TRIPOS>BOND
     1    33    34    1
     2    34    22    1
     3    22    23   ar
     4    23    24   ar
     5    24    25   ar
     6    25    26   ar
     7    26    27   ar
     8    27    28   ar
     9    28    29    1
    10    28    30   ar
    11    30    21    1
    12    21    20    1
    13    20     1    1
    14     1     2    1
    15     2     3    1
    16     3     4    1
    17     4     7    1
    18     7     9    1
    19     9    10    1
    20    10    11   ar
    21    11    12   ar
    22    12    13   ar
    23    13    14   ar
    24    14    15   ar
    25    13    16    1
    26    16    17    1
    27    17    18    1
    28    18    19    1
    29     4     5    1
    30     5     6    1
    31    30    31   ar
    32    31    32   ar
    33    32    22   ar
    34    31    25   ar
    35     6     1    1
    36    15    10   ar
    37    19    12    1
    38     7     8    1
@<TRIPOS>MOLECULE
*****
 34 38 0 0 0
SMALL
GASTEIGER

@<TRIPOS>ATOM
      1 N         137.9208  143.0047  162.9283 N.3     1  UNL1       -0.2723
      2 C         137.6880  141.8731  163.8849 C.3     1  UNL1        0.0735
      3 C         137.6648  140.4596  163.3833 C.3     1  UNL1        0.0331
      4 C         137.8745  140.1778  161.9250 C.3     1  UNL1        0.0570
      5 C         138.1073  141.3095  160.9683 C.3     1  UNL1        0.0331
      6 C         138.1305  142.7230  161.4700 C.3     1  UNL1        0.0735
      7 N         137.8513  138.7644  161.4233 N.3     1  UNL1       -0.2934
      8 H         137.2880  138.7630  160.5730 H       1  UNL1        0.1236
      9 C         139.1363  138.0648  161.0926 C.3     1  UNL1        0.1152
     10 C         140.3387  138.2507  161.9698 C.ar    1  UNL1        0.0782
     11 C         141.4002  139.2392  161.5876 C.ar    1  UNL1        0.0562
     12 C         142.6028  139.4250  162.4649 C.ar    1  UNL1        0.1752
     13 C         142.7437  138.6224  163.7242 C.ar    1  UNL1        0.1914
     14 C         141.6822  137.6339  164.1063 C.ar    1  UNL1        0.1384
     15 N         140.4797  137.4480  163.2291 N.ar    1  UNL1       -0.2434
     16 O         143.9463  138.8083  164.6014 O.3     1  UNL1       -0.4668
     17 C         145.0078  139.7968  164.2193 C.3     1  UNL1        0.2527
     18 C         144.8668  140.5994  162.9599 C.3     1  UNL1        0.2526
     19 O         143.6643  140.4136  162.0828 O.3     1  UNL1       -0.4683
     20 C         137.9440  144.4181  163.4300 C.3     1  UNL1        0.0769
     21 C         138.9275  144.8224  164.4880 C.3     1  UNL1        0.0476
     22 C         140.7842  141.7838  167.2393 C.ar    1  UNL1        0.2250
     23 C         142.2334  141.4257  167.0924 C.ar    1  UNL1        0.0593
     24 C         143.0637  142.0805  166.0285 C.ar    1  UNL1        0.0254
     25 C         142.4448  143.0933  165.1114 C.ar    1  UNL1        0.0990
     26 N         143.2751  143.7481  164.0475 N.ar    1  UNL1       -0.2400
     27 C         142.6562  144.7609  163.1304 C.ar    1  UNL1        0.1281
     28 C         141.2069  145.1191  163.2773 C.ar    1  UNL1        0.1567
     29 F         140.5880  146.1319  162.3602 F       1  UNL1       -0.2028
     30 C         140.3766  144.4643  164.3412 C.ar    1  UNL1        0.0274
     31 C         140.9956  143.4514  165.2583 C.ar    1  UNL1        0.1002
     32 N         140.1653  142.7967  166.3222 N.ar    1  UNL1       -0.2104
     33 C         139.9518  141.6803  169.6982 C.3     1  UNL1        0.2542
     34 O         139.9539  141.1291  168.3032 O.3     1  UNL1       -0.4561
@<TRIPOS>BOND
     1    33    34    1
     2    34    22    1
     3    22    23   ar
     4    23    24   ar
     5    24    25   ar
     6    25    26   ar
     7    26    27   ar
     8    27    28   ar
     9    28    29    1
    10    28    30   ar
    11    30    21    1
    12    21    20    1
    13    20     1    1
    14     1     2    1
    15     2     3    1
    16     3     4    1
    17     4     7    1
    18     7     9    1
    19     9    10    1
    20    10    11   ar
    21    11    12   ar
    22    12    13   ar
    23    13    14   ar
    24    14    15   ar
    25    13    16    1
    26    16    17    1
    27    17    18    1
    28    18    19    1
    29     4     5    1
    30     5     6    1
    31    30    31   ar
    32    31    32   ar
    33    32    22   ar
    34    31    25   ar
    35     6     1    1
    36    15    10   ar
    37    19    12    1
    38     7     8    1
@<TRIPOS>MOLECULE
*****
 34 38 0 0 0
SMALL
GASTEIGER

@<TRIPOS>ATOM
      1 N         143.0406  144.0147  162.4410 N.3     1  UNL1       -0.2723
      2 C         142.1727  143.5412  161.3129 C.3     1  UNL1        0.0735
      3 C         140.7216  143.9189  161.2735 C.3     1  UNL1        0.0331
      4 C         140.1383  144.7700  162.3623 C.3     1  UNL1        0.0570
      5 C         141.0061  145.2434  163.4904 C.3     1  UNL1        0.0331
      6 C         142.4573  144.8658  163.5297 C.3     1  UNL1        0.0735
      7 N         138.6871  145.1476  162.3229 N.3     1  UNL1       -0.2934
      8 H         138.4079  145.1416  161.3419 H       1  UNL1        0.1236
      9 C         137.6773  144.3238  163.0656 C.3     1  UNL1        0.1152
     10 C         137.8641  142.8406  163.1890 C.ar    1  UNL1        0.0782
     11 C         138.1930  142.2344  164.5210 C.ar    1  UNL1        0.0562
     12 C         138.3797  140.7511  164.6444 C.ar    1  UNL1        0.1752
     13 C         138.2375  139.8742  163.4359 C.ar    1  UNL1        0.1914
     14 C         137.9086  140.4804  162.1038 C.ar    1  UNL1        0.1384
     15 N         137.7219  141.9636  161.9804 N.ar    1  UNL1       -0.2434
     16 O         138.4243  138.3909  163.5593 O.3     1  UNL1       -0.4668
     17 C         138.7532  137.7847  164.8913 C.3     1  UNL1        0.2527
     18 C         138.8954  138.6617  166.0999 C.3     1  UNL1        0.2526
     19 O         138.7087  140.1449  165.9765 O.3     1  UNL1       -0.4683
     20 C         144.4917  143.6371  162.4804 C.3     1  UNL1        0.0769
     21 C         144.9816  142.6460  163.4943 C.3     1  UNL1        0.0476
     22 C         143.5548  139.1035  161.1142 C.ar    1  UNL1        0.2250
     23 C         142.5991  138.1236  161.7277 C.ar    1  UNL1        0.0593
     24 C         142.1190  138.3245  163.1345 C.ar    1  UNL1        0.0254
     25 C         142.5946  139.5053  163.9279 C.ar    1  UNL1        0.0990
     26 N         142.1146  139.7061  165.3347 N.ar    1  UNL1       -0.2400
     27 C         142.5901  140.8869  166.1281 C.ar    1  UNL1        0.1281
     28 C         143.5459  141.8670  165.5146 C.ar    1  UNL1        0.1567
     29 F         144.0214  143.0478  166.3080 F       1  UNL1       -0.2028
     30 C         144.0259  141.6661  164.1078 C.ar    1  UNL1        0.0274
     31 C         143.5503  140.4852  163.3144 C.ar    1  UNL1        0.1002
     32 N         144.0303  140.2843  161.9076 N.ar    1  UNL1       -0.2104
     33 C         143.3119  139.5570  158.5676 C.3     1  UNL1        0.2542
     34 O         144.0348  138.9027  159.7074 O.3     1  UNL1       -0.4561
@<TRIPOS>BOND
     1    33    34    1
     2    34    22    1
     3    22    23   ar
     4    23    24   ar
     5    24    25   ar
     6    25    26   ar
     7    26    27   ar
     8    27    28   ar
     9    28    29    1
    10    28    30   ar
    11    30    21    1
    12    21    20    1
    13    20     1    1
    14     1     2    1
    15     2     3    1
    16     3     4    1
    17     4     7    1
    18     7     9    1
    19     9    10    1
    20    10    11   ar
    21    11    12   ar
    22    12    13   ar
    23    13    14   ar
    24    14    15   ar
    25    13    16    1
    26    16    17    1
    27    17    18    1
    28    18    19    1
    29     4     5    1
    30     5     6    1
    31    30    31   ar
    32    31    32   ar
    33    32    22   ar
    34    31    25   ar
    35     6     1    1
    36    15    10   ar
    37    19    12    1
    38     7     8    1
@<TRIPOS>MOLECULE
*****
 34 38 0 0 0
SMALL
GASTEIGER

@<TRIPOS>ATOM
      1 N         138.0427  140.1707  162.4682 N.3     1  UNL1       -0.2723
      2 C         138.2187  140.9285  161.1857 C.3     1  UNL1        0.0735
      3 C         138.1339  142.4260  161.1816 C.3     1  UNL1        0.0331
      4 C         137.8731  143.1660  162.4602 C.3     1  UNL1        0.0570
      5 C         137.6971  142.4082  163.7427 C.3     1  UNL1        0.0331
      6 C         137.7819  140.9106  163.7467 C.3     1  UNL1        0.0735
      7 N         137.7884  144.6635  162.4561 N.3     1  UNL1       -0.2934
      8 H         137.1302  144.9232  163.1909 H       1  UNL1        0.1236
      9 C         139.0246  145.4853  162.6719 C.3     1  UNL1        0.1152
     10 C         140.3750  144.8337  162.6304 C.ar    1  UNL1        0.0782
     11 C         141.0140  144.3507  163.8986 C.ar    1  UNL1        0.0562
     12 C         142.3645  143.6992  163.8571 C.ar    1  UNL1        0.1752
     13 C         143.0759  143.5306  162.5473 C.ar    1  UNL1        0.1914
     14 C         142.4369  144.0136  161.2791 C.ar    1  UNL1        0.1384
     15 N         141.0865  144.6651  161.3206 N.ar    1  UNL1       -0.2434
     16 O         144.4264  142.8790  162.5058 O.3     1  UNL1       -0.4668
     17 C         145.0655  142.3960  163.7740 C.3     1  UNL1        0.2527
     18 C         144.3540  142.5646  165.0838 C.3     1  UNL1        0.2526
     19 O         143.0035  143.2162  165.1253 O.3     1  UNL1       -0.4683
     20 C         138.1274  138.6732  162.4722 C.3     1  UNL1        0.0769
     21 C         138.8890  137.9680  163.5552 C.3     1  UNL1        0.0476
     22 C         140.0789  139.6053  167.5742 C.ar    1  UNL1        0.2250
     23 C         141.5095  139.9675  167.8428 C.ar    1  UNL1        0.0593
     24 C         142.5435  139.7839  166.7718 C.ar    1  UNL1        0.0254
     25 C         142.1469  139.2381  165.4321 C.ar    1  UNL1        0.0990
     26 N         143.1809  139.0545  164.3610 N.ar    1  UNL1       -0.2400
     27 C         142.7842  138.5087  163.0214 C.ar    1  UNL1        0.1281
     28 C         141.3536  138.1465  162.7527 C.ar    1  UNL1        0.1567
     29 F         140.9570  137.6007  161.4130 F       1  UNL1       -0.2028
     30 C         140.3196  138.3301  163.8238 C.ar    1  UNL1        0.0274
     31 C         140.7163  138.8759  165.1635 C.ar    1  UNL1        0.1002
     32 N         139.6823  139.0595  166.2346 N.ar    1  UNL1       -0.2104
     33 C         139.2924  140.7505  169.7697 C.3     1  UNL1        0.2542
     34 O         139.0450  139.7889  168.6453 O.3     1  UNL1       -0.4561
@<TRIPOS>BOND
     1    33    34    1
     2    34    22    1
     3    22    23   ar
     4    23    24   ar
     5    24    25   ar
     6    25    26   ar
     7    26    27   ar
     8    27    28   ar
     9    28    29    1
    10    28    30   ar
    11    30    21    1
    12    21    20    1
    13    20     1    1
    14     1     2    1
    15     2     3    1
    16     3     4    1
    17     4     7    1
    18     7     9    1
    19     9    10    1
    20    10    11   ar
    21    11    12   ar
    22    12    13   ar
    23    13    14   ar
    24    14    15   ar
    25    13    16    1
    26    16    17    1
    27    17    18    1
    28    18    19    1
    29     4     5    1
    30     5     6    1
    31    30    31   ar
    32    31    32   ar
    33    32    22   ar
    34    31    25   ar
    35     6     1    1
    36    15    10   ar
    37    19    12    1
    38     7     8    1
@<TRIPOS>MOLECULE
*****
 34 38 0 0 0
SMALL
GASTEIGER

@<TRIPOS>ATOM
      1 N         139.7375  138.3092  164.3421 N.3     1  UNL1       -0.2723
      2 C         139.1291  139.2219  165.3653 C.3     1  UNL1        0.0735
      3 C         138.1967  140.3153  164.9350 C.3     1  UNL1        0.0331
      4 C         137.8727  140.4960  163.4816 C.3     1  UNL1        0.0570
      5 C         138.4812  139.5834  162.4584 C.3     1  UNL1        0.0331
      6 C         139.4136  138.4900  162.8887 C.3     1  UNL1        0.0735
      7 N         136.9403  141.5894  163.0514 N.3     1  UNL1       -0.2934
      8 H         136.1710  141.6008  163.7210 H       1  UNL1        0.1236
      9 C         137.4388  142.9998  162.9406 C.3     1  UNL1        0.1152
     10 C         138.8771  143.2628  162.6060 C.ar    1  UNL1        0.0782
     11 C         139.7701  143.9320  163.6083 C.ar    1  UNL1        0.0562
     12 C         141.2085  144.1950  163.2736 C.ar    1  UNL1        0.1752
     13 C         141.7538  143.7888  161.9367 C.ar    1  UNL1        0.1914
     14 C         140.8608  143.1197  160.9343 C.ar    1  UNL1        0.1384
     15 N         139.4225  142.8567  161.2689 N.ar    1  UNL1       -0.2434
     16 O         143.1922  144.0519  161.6020 O.3     1  UNL1       -0.4668
     17 C         144.0852  144.7210  162.6044 C.3     1  UNL1        0.2527
     18 C         143.5398  145.1272  163.9414 C.3     1  UNL1        0.2526
     19 O         142.1015  144.8642  164.2760 O.3     1  UNL1       -0.4683
     20 C         140.6699  137.2159  164.7723 C.3     1  UNL1        0.0769
     21 C         142.1117  137.5249  165.0481 C.3     1  UNL1        0.0476
     22 C         142.4261  140.7690  168.1508 C.ar    1  UNL1        0.2250
     23 C         142.9900  142.1087  167.7806 C.ar    1  UNL1        0.0593
     24 C         143.4492  142.3670  166.3762 C.ar    1  UNL1        0.0254
     25 C         143.3444  141.2857  165.3420 C.ar    1  UNL1        0.0990
     26 N         143.8036  141.5441  163.9376 N.ar    1  UNL1       -0.2400
     27 C         143.6989  140.4627  162.9033 C.ar    1  UNL1        0.1281
     28 C         143.1348  139.1229  163.2735 C.ar    1  UNL1        0.1567
     29 F         143.0300  138.0416  162.2393 F       1  UNL1       -0.2028
     30 C         142.6756  138.8646  164.6779 C.ar    1  UNL1        0.0274
     31 C         142.7805  139.9460  165.7122 C.ar    1  UNL1        0.1002
     32 N         142.3213  139.6876  167.1166 N.ar    1  UNL1       -0.2104
     33 C         140.5858  139.9826  169.8076 C.3     1  UNL1        0.2542
     34 O         141.9669  140.5106  169.5552 O.3     1  UNL1       -0.4561
@<TRIPOS>BOND
     1    33    34    1
     2    34    22    1
     3    22    23   ar
     4    23    24   ar
     5    24    25   ar
     6    25    26   ar
     7    26    27   ar
     8    27    28   ar
     9    28    29    1
    10    28    30   ar
    11    30    21    1
    12    21    20    1
    13    20     1    1
    14     1     2    1
    15     2     3    1
    16     3     4    1
    17     4     7    1
    18     7     9    1
    19     9    10    1
    20    10    11   ar
    21    11    12   ar
    22    12    13   ar
    23    13    14   ar
    24    14    15   ar
    25    13    16    1
    26    16    17    1
    27    17    18    1
    28    18    19    1
    29     4     5    1
    30     5     6    1
    31    30    31   ar
    32    31    32   ar
    33    32    22   ar
    34    31    25   ar
    35     6     1    1
    36    15    10   ar
    37    19    12    1
    38     7     8    1
@<TRIPOS>MOLECULE
*****
 34 38 0 0 0
SMALL
GASTEIGER

@<TRIPOS>ATOM
      1 N         142.8171  144.4237  163.4933 N.3     1  UNL1       -0.2723
      2 C         141.4750  144.7604  164.0725 C.3     1  UNL1        0.0735
      3 C         140.2306  144.5239  163.2691 C.3     1  UNL1        0.0331
      4 C         140.3283  143.9506  161.8863 C.3     1  UNL1        0.0570
      5 C         141.6704  143.6140  161.3071 C.3     1  UNL1        0.0331
      6 C         142.9148  143.8505  162.1106 C.3     1  UNL1        0.0735
      7 N         139.0839  143.7141  161.0829 N.3     1  UNL1       -0.2934
      8 H         139.3687  143.2187  160.2380 H       1  UNL1        0.1236
      9 C         137.9443  142.9396  161.6757 C.3     1  UNL1        0.1152
     10 C         138.1895  141.5888  162.2798 C.ar    1  UNL1        0.0782
     11 C         137.8871  141.3494  163.7294 C.ar    1  UNL1        0.0562
     12 C         138.1323  139.9984  164.3335 C.ar    1  UNL1        0.1752
     13 C         138.6798  138.8869  163.4881 C.ar    1  UNL1        0.1914
     14 C         138.9821  139.1263  162.0385 C.ar    1  UNL1        0.1384
     15 N         138.7370  140.4772  161.4344 N.ar    1  UNL1       -0.2434
     16 O         138.9249  137.5360  164.0922 O.3     1  UNL1       -0.4668
     17 C         138.6226  137.2966  165.5418 C.3     1  UNL1        0.2527
     18 C         138.0751  138.4082  166.3872 C.3     1  UNL1        0.2526
     19 O         137.8299  139.7590  165.7831 O.3     1  UNL1       -0.4683
     20 C         144.0614  144.6602  164.2968 C.3     1  UNL1        0.0769
     21 C         144.4929  143.6562  165.3244 C.3     1  UNL1        0.0476
     22 C         141.1912  141.6904  167.6663 C.ar    1  UNL1        0.2250
     23 C         140.8924  140.2345  167.4640 C.ar    1  UNL1        0.0593
     24 C         141.6942  139.4338  166.4811 C.ar    1  UNL1        0.0254
     25 C         142.7947  140.0891  165.7005 C.ar    1  UNL1        0.0990
     26 N         143.5965  139.2884  164.7176 N.ar    1  UNL1       -0.2400
     27 C         144.6971  139.9436  163.9370 C.ar    1  UNL1        0.1281
     28 C         144.9959  141.3996  164.1393 C.ar    1  UNL1        0.1567
     29 F         146.0964  142.0548  163.3586 F       1  UNL1       -0.2028
     30 C         144.1941  142.2003  165.1221 C.ar    1  UNL1        0.0274
     31 C         143.0935  141.5450  165.9028 C.ar    1  UNL1        0.1002
     32 N         142.2917  142.3457  166.8856 N.ar    1  UNL1       -0.2104
     33 C         141.0851  143.2804  169.7182 C.3     1  UNL1        0.2542
     34 O         140.3894  142.4911  168.6491 O.3     1  UNL1       -0.4561
@<TRIPOS>BOND
     1    33    34    1
     2    34    22    1
     3    22    23   ar
     4    23    24   ar
     5    24    25   ar
     6    25    26   ar
     7    26    27   ar
     8    27    28   ar
     9    28    29    1
    10    28    30   ar
    11    30    21    1
    12    21    20    1
    13    20     1    1
    14     1     2    1
    15     2     3    1
    16     3     4    1
    17     4     7    1
    18     7     9    1
    19     9    10    1
    20    10    11   ar
    21    11    12   ar
    22    12    13   ar
    23    13    14   ar
    24    14    15   ar
    25    13    16    1
    26    16    17    1
    27    17    18    1
    28    18    19    1
    29     4     5    1
    30     5     6    1
    31    30    31   ar
    32    31    32   ar
    33    32    22   ar
    34    31    25   ar
    35     6     1    1
    36    15    10   ar
    37    19    12    1
    38     7     8    1
@<TRIPOS>MOLECULE
*****
 34 38 0 0 0
SMALL
GASTEIGER

@<TRIPOS>ATOM
      1 N         143.0478  143.9910  162.4208 N.3     1  UNL1       -0.2723
      2 C         142.4622  144.7208  163.5931 C.3     1  UNL1        0.0735
      3 C         141.0243  145.1471  163.5690 C.3     1  UNL1        0.0331
      4 C         140.1719  144.8436  162.3726 C.3     1  UNL1        0.0570
      5 C         140.7576  144.1138  161.2002 C.3     1  UNL1        0.0331
      6 C         142.1956  143.6875  161.2244 C.3     1  UNL1        0.0735
      7 N         138.7340  145.2699  162.3485 N.3     1  UNL1       -0.2934
      8 H         138.4627  145.3356  161.3674 H       1  UNL1        0.1236
      9 C         137.6923  144.4336  163.0307 C.3     1  UNL1        0.1152
     10 C         137.9833  143.0015  163.3687 C.ar    1  UNL1        0.0782
     11 C         137.8102  141.9352  162.3280 C.ar    1  UNL1        0.0562
     12 C         138.1013  140.5030  162.6661 C.ar    1  UNL1        0.1752
     13 C         138.5655  140.1372  164.0447 C.ar    1  UNL1        0.1914
     14 C         138.7386  141.2036  165.0854 C.ar    1  UNL1        0.1384
     15 N         138.4475  142.6357  164.7474 N.ar    1  UNL1       -0.2434
     16 O         138.8566  138.7050  164.3828 O.3     1  UNL1       -0.4668
     17 C         138.6834  137.6387  163.3421 C.3     1  UNL1        0.2527
     18 C         138.2192  138.0046  161.9634 C.3     1  UNL1        0.2526
     19 O         137.9281  139.4367  161.6254 O.3     1  UNL1       -0.4683
     20 C         144.4857  143.5647  162.4449 C.3     1  UNL1        0.0769
     21 C         144.9269  142.4656  163.3655 C.3     1  UNL1        0.0476
     22 C         142.9423  141.7173  167.3343 C.ar    1  UNL1        0.2250
     23 C         142.0783  140.5059  167.5242 C.ar    1  UNL1        0.0593
     24 C         141.8758  139.5440  166.3911 C.ar    1  UNL1        0.0254
     25 C         142.5373  139.7935  165.0682 C.ar    1  UNL1        0.0990
     26 N         142.3348  138.8315  163.9352 N.ar    1  UNL1       -0.2400
     27 C         142.9964  139.0810  162.6123 C.ar    1  UNL1        0.1281
     28 C         143.8604  140.2924  162.4224 C.ar    1  UNL1        0.1567
     29 F         144.5219  140.5418  161.0995 F       1  UNL1       -0.2028
     30 C         144.0629  141.2543  163.5554 C.ar    1  UNL1        0.0274
     31 C         143.4013  141.0048  164.8784 C.ar    1  UNL1        0.1002
     32 N         143.6038  141.9667  166.0114 N.ar    1  UNL1       -0.2104
     33 C         142.4841  142.4292  169.7905 C.3     1  UNL1        0.2542
     34 O         143.1447  142.6792  168.4673 O.3     1  UNL1       -0.4561
@<TRIPOS>BOND
     1    33    34    1
     2    34    22    1
     3    22    23   ar
     4    23    24   ar
     5    24    25   ar
     6    25    26   ar
     7    26    27   ar
     8    27    28   ar
     9    28    29    1
    10    28    30   ar
    11    30    21    1
    12    21    20    1
    13    20     1    1
    14     1     2    1
    15     2     3    1
    16     3     4    1
    17     4     7    1
    18     7     9    1
    19     9    10    1
    20    10    11   ar
    21    11    12   ar
    22    12    13   ar
    23    13    14   ar
    24    14    15   ar
    25    13    16    1
    26    16    17    1
    27    17    18    1
    28    18    19    1
    29     4     5    1
    30     5     6    1
    31    30    31   ar
    32    31    32   ar
    33    32    22   ar
    34    31    25   ar
    35     6     1    1
    36    15    10   ar
    37    19    12    1
    38     7     8    1
@<TRIPOS>MOLECULE
*****
 34 38 0 0 0
SMALL
GASTEIGER

@<TRIPOS>ATOM
      1 N         141.6123  145.0922  162.4255 N.3     1  UNL1       -0.2723
      2 C         142.4843  145.0395  163.6448 C.3     1  UNL1        0.0735
      3 C         143.7111  144.1766  163.6528 C.3     1  UNL1        0.0331
      4 C         144.0660  143.3662  162.4414 C.3     1  UNL1        0.0570
      5 C         143.1939  143.4188  161.2220 C.3     1  UNL1        0.0331
      6 C         141.9670  144.2819  161.2141 C.3     1  UNL1        0.0735
      7 N         145.2928  142.5032  162.4493 N.3     1  UNL1       -0.2934
      8 H         146.0300  143.0436  162.9019 H       1  UNL1        0.1236
      9 C         145.2628  141.1631  163.1226 C.3     1  UNL1        0.1152
     10 C         144.1097  140.2325  162.8899 C.ar    1  UNL1        0.0782
     11 C         142.9186  140.2718  163.8008 C.ar    1  UNL1        0.0562
     12 C         141.7654  139.3411  163.5680 C.ar    1  UNL1        0.1752
     13 C         141.8033  138.3713  162.4244 C.ar    1  UNL1        0.1914
     14 C         142.9944  138.3320  161.5135 C.ar    1  UNL1        0.1384
     15 N         144.1475  139.2626  161.7462 N.ar    1  UNL1       -0.2434
     16 O         140.6501  137.4406  162.1916 O.3     1  UNL1       -0.4668
     17 C         139.4590  137.4798  163.1026 C.3     1  UNL1        0.2527
     18 C         139.4212  138.4497  164.2462 C.3     1  UNL1        0.2526
     19 O         140.5743  139.3803  164.4790 O.3     1  UNL1       -0.4683
     20 C         140.3854  145.9551  162.4175 C.3     1  UNL1        0.0769
     21 C         139.0619  145.3735  162.0175 C.3     1  UNL1        0.0476
     22 C         138.3963  141.8297  159.3252 C.ar    1  UNL1        0.2250
     23 C         137.9460  140.5216  159.9048 C.ar    1  UNL1        0.0593
     24 C         137.7176  140.3947  161.3818 C.ar    1  UNL1        0.0254
     25 C         137.9394  141.5759  162.2793 C.ar    1  UNL1        0.0990
     26 N         137.7109  141.4490  163.7563 N.ar    1  UNL1       -0.2400
     27 C         137.9328  142.6303  164.6538 C.ar    1  UNL1        0.1281
     28 C         138.3831  143.9385  164.0742 C.ar    1  UNL1        0.1567
     29 F         138.6049  145.1197  164.9716 F       1  UNL1       -0.2028
     30 C         138.6116  144.0654  162.5971 C.ar    1  UNL1        0.0274
     31 C         138.3897  142.8841  161.6997 C.ar    1  UNL1        0.1002
     32 N         138.6182  143.0109  160.2226 N.ar    1  UNL1       -0.2104
     33 C         137.4579  142.1201  156.9200 C.3     1  UNL1        0.2542
     34 O         138.6248  141.9566  157.8481 O.3     1  UNL1       -0.4561
@<TRIPOS>BOND
     1    33    34    1
     2    34    22    1
     3    22    23   ar
     4    23    24   ar
     5    24    25   ar
     6    25    26   ar
     7    26    27   ar
     8    27    28   ar
     9    28    29    1
    10    28    30   ar
    11    30    21    1
    12    21    20    1
    13    20     1    1
    14     1     2    1
    15     2     3    1
    16     3     4    1
    17     4     7    1
    18     7     9    1
    19     9    10    1
    20    10    11   ar
    21    11    12   ar
    22    12    13   ar
    23    13    14   ar
    24    14    15   ar
    25    13    16    1
    26    16    17    1
    27    17    18    1
    28    18    19    1
    29     4     5    1
    30     5     6    1
    31    30    31   ar
    32    31    32   ar
    33    32    22   ar
    34    31    25   ar
    35     6     1    1
    36    15    10   ar
    37    19    12    1
    38     7     8    1
@<TRIPOS>MOLECULE
*****
 34 38 0 0 0
SMALL
GASTEIGER

@<TRIPOS>ATOM
      1 N         143.3270  140.4667  160.6725 N.3     1  UNL1       -0.2723
      2 C         144.1357  139.3752  161.3086 C.3     1  UNL1        0.0735
      3 C         143.4459  138.2256  161.9814 C.3     1  UNL1        0.0331
      4 C         141.9474  138.1676  162.0181 C.3     1  UNL1        0.0570
      5 C         141.1388  139.2591  161.3820 C.3     1  UNL1        0.0331
      6 C         141.8286  140.4087  160.7091 C.3     1  UNL1        0.0735
      7 N         141.2577  137.0180  162.6909 N.3     1  UNL1       -0.2934
      8 H         141.7385  136.1699  162.3911 H       1  UNL1        0.1236
      9 C         141.1769  136.9639  164.1878 C.3     1  UNL1        0.1152
     10 C         140.9353  138.2197  164.9717 C.ar    1  UNL1        0.0782
     11 C         142.0191  138.7790  165.8449 C.ar    1  UNL1        0.0562
     12 C         141.7774  140.0348  166.6289 C.ar    1  UNL1        0.1752
     13 C         140.4520  140.7313  166.5396 C.ar    1  UNL1        0.1914
     14 C         139.3681  140.1720  165.6664 C.ar    1  UNL1        0.1384
     15 N         139.6098  138.9162  164.8825 N.ar    1  UNL1       -0.2434
     16 O         140.2103  141.9871  167.3236 O.3     1  UNL1       -0.4668
     17 C         141.2941  142.5464  168.1968 C.3     1  UNL1        0.2527
     18 C         142.6196  141.8499  168.2860 C.3     1  UNL1        0.2526
     19 O         142.8613  140.5941  167.5021 O.3     1  UNL1       -0.4683
     20 C         144.0168  141.6162  159.9997 C.3     1  UNL1        0.0769
     21 C         144.5093  142.7759  160.8138 C.3     1  UNL1        0.0476
     22 C         140.6228  144.9131  161.5735 C.ar    1  UNL1        0.2250
     23 C         140.1342  145.1042  162.9787 C.ar    1  UNL1        0.0593
     24 C         140.9411  144.5829  164.1307 C.ar    1  UNL1        0.0254
     25 C         142.2366  143.8705  163.8775 C.ar    1  UNL1        0.0990
     26 N         143.0435  143.3493  165.0296 N.ar    1  UNL1       -0.2400
     27 C         144.3390  142.6369  164.7763 C.ar    1  UNL1        0.1281
     28 C         144.8277  142.4457  163.3711 C.ar    1  UNL1        0.1567
     29 F         146.1232  141.7333  163.1178 F       1  UNL1       -0.2028
     30 C         144.0208  142.9670  162.2190 C.ar    1  UNL1        0.0274
     31 C         142.7252  143.6794  162.4723 C.ar    1  UNL1        0.1002
     32 N         141.9183  144.2007  161.3203 N.ar    1  UNL1       -0.2104
     33 C         140.3887  145.4159  159.0353 C.3     1  UNL1        0.2542
     34 O         139.8159  145.4344  160.4215 O.3     1  UNL1       -0.4561
@<TRIPOS>BOND
     1    33    34    1
     2    34    22    1
     3    22    23   ar
     4    23    24   ar
     5    24    25   ar
     6    25    26   ar
     7    26    27   ar
     8    27    28   ar
     9    28    29    1
    10    28    30   ar
    11    30    21    1
    12    21    20    1
    13    20     1    1
    14     1     2    1
    15     2     3    1
    16     3     4    1
    17     4     7    1
    18     7     9    1
    19     9    10    1
    20    10    11   ar
    21    11    12   ar
    22    12    13   ar
    23    13    14   ar
    24    14    15   ar
    25    13    16    1
    26    16    17    1
    27    17    18    1
    28    18    19    1
    29     4     5    1
    30     5     6    1
    31    30    31   ar
    32    31    32   ar
    33    32    22   ar
    34    31    25   ar
    35     6     1    1
    36    15    10   ar
    37    19    12    1
    38     7     8    1
