@<TRIPOS>MOLECULE
*****
 36 38 0 0 0
SMALL
GASTEIGER

@<TRIPOS>ATOM
      1 C         142.2058  144.1113  163.9191 C.3     1  UNL1        0.1102
      2 C         140.7301  144.2793  164.1283 C.3     1  UNL1        0.0296
      3 C         140.0104  143.4164  165.1221 C.3     1  UNL1        0.0730
      4 N         140.7667  142.3855  165.9066 N.3     1  UNL1       -0.2689
      5 C         142.2424  142.2176  165.6974 C.3     1  UNL1        0.0730
      6 C         142.9621  143.0804  164.7036 C.3     1  UNL1        0.0296
      7 C         143.5854  144.3274  163.3713 C.2     1  UNL1        0.3177
      8 O         144.1303  145.7187  163.2387 O.2     1  UNL1       -0.2501
      9 C         144.6283  142.8571  161.5003 C.3     1  UNL1        0.2556
     10 O         144.4201  143.1524  162.9561 O.3     1  UNL1       -0.4444
     11 C         141.9287  145.2172  162.9444 C.3     1  UNL1        0.1002
     12 N         142.0691  144.9713  161.4713 N.am    1  UNL1       -0.3003
     13 C         140.9328  145.2917  160.5458 C.2     1  UNL1        0.2461
     14 O         139.6563  145.8579  161.0934 O.2     1  UNL1       -0.2701
     15 H         142.9069  144.5997  161.1119 H       1  UNL1        0.1498
     16 C         141.0732  145.0458  159.0728 C.ar    1  UNL1        0.0594
     17 C         142.2015  144.2024  158.5574 C.ar    1  UNL1        0.0416
     18 C         142.3419  143.9566  157.0843 C.ar    1  UNL1        0.1419
     19 C         141.3540  144.5540  156.1267 C.ar    1  UNL1        0.0738
     20 C         140.2256  145.3974  156.6422 C.ar    1  UNL1        0.1419
     21 C         140.0853  145.6433  158.1152 C.ar    1  UNL1        0.0416
     22 O         143.4702  143.1131  156.5689 O.3     1  UNL1       -0.4713
     23 C         144.4424  142.4934  157.5285 C.3     1  UNL1        0.2525
     24 O         139.2377  145.9949  155.6846 O.3     1  UNL1       -0.4713
     25 C         139.1465  147.4845  155.5332 C.3     1  UNL1        0.2525
     26 C         140.0471  141.5227  166.9004 C.3     1  UNL1        0.0991
     27 C         139.5465  140.1683  166.4941 C.ar    1  UNL1       -0.0062
     28 C         138.3340  139.5864  167.1584 C.ar    1  UNL1       -0.0029
     29 C         137.8334  138.2320  166.7521 C.ar    1  UNL1       -0.0003
     30 C         138.5453  137.4595  165.6814 C.ar    1  UNL1        0.0038
     31 C         139.7578  138.0414  165.0170 C.ar    1  UNL1        0.0712
     32 C         140.2584  139.3957  165.4234 C.ar    1  UNL1        0.0009
     33 C         140.4696  137.2688  163.9463 C.3     1  UNL1        0.4186
     34 F         141.1815  136.4962  162.8757 F       1  UNL1       -0.1659
     35 F         139.2825  137.4266  163.0431 F       1  UNL1       -0.1659
     36 F         141.6568  137.1110  164.8496 F       1  UNL1       -0.1659
@<TRIPOS>BOND
     1     9    10    1
     2    10     7    1
     3     7     8    2
     4     7     1    1
     5     1    11    1
     6    11    12    1
     7    12    13   am
     8    13    14    2
     9    13    16    1
    10    16    17   ar
    11    17    18   ar
    12    18    22    1
    13    22    23    1
    14    18    19   ar
    15    19    20   ar
    16    20    24    1
    17    24    25    1
    18    20    21   ar
    19     1     2    1
    20     2     3    1
    21     3     4    1
    22     4    26    1
    23    26    27    1
    24    27    28   ar
    25    28    29   ar
    26    29    30   ar
    27    30    31   ar
    28    31    33    1
    29    33    34    1
    30    33    35    1
    31    33    36    1
    32    31    32   ar
    33     4     5    1
    34     5     6    1
    35     6     1    1
    36    21    16   ar
    37    32    27   ar
    38    12    15    1
@<TRIPOS>MOLECULE
*****
 36 38 0 0 0
SMALL
GASTEIGER

@<TRIPOS>ATOM
      1 C         141.9029  143.8548  163.4735 C.3     1  UNL1        0.1102
      2 C         140.5610  144.3239  163.9522 C.3     1  UNL1        0.0296
      3 C         139.8126  143.5305  164.9819 C.3     1  UNL1        0.0730
      4 N         140.4060  142.2679  165.5329 N.3     1  UNL1       -0.2689
      5 C         141.7479  141.7987  165.0542 C.3     1  UNL1        0.0730
      6 C         142.4964  142.5921  164.0245 C.3     1  UNL1        0.0296
      7 C         143.1945  143.8199  162.7116 C.2     1  UNL1        0.3177
      8 O         144.1630  144.9597  162.8246 O.2     1  UNL1       -0.2501
      9 C         144.9370  142.3810  161.4296 C.3     1  UNL1        0.2556
     10 O         143.5177  142.6452  161.8366 O.3     1  UNL1       -0.4444
     11 C         141.7580  145.1053  162.6579 C.3     1  UNL1        0.1002
     12 N         141.8728  145.0436  161.1636 N.am    1  UNL1       -0.3003
     13 C         140.6675  145.2981  160.3076 C.2     1  UNL1        0.2461
     14 O         139.3475  145.6142  160.9460 O.2     1  UNL1       -0.2701
     15 H         142.7392  144.8361  160.7446 H       1  UNL1        0.1498
     16 C         140.7824  145.2364  158.8133 C.ar    1  UNL1        0.0594
     17 C         141.5939  144.1528  158.1675 C.ar    1  UNL1        0.0416
     18 C         141.7087  144.0911  156.6732 C.ar    1  UNL1        0.1419
     19 C         141.0120  145.1131  155.8247 C.ar    1  UNL1        0.0738
     20 C         140.2004  146.1968  156.4704 C.ar    1  UNL1        0.1419
     21 C         140.0856  146.2585  157.9648 C.ar    1  UNL1        0.0416
     22 O         142.5203  143.0074  156.0275 O.3     1  UNL1       -0.4713
     23 C         143.9087  142.7180  156.5159 C.3     1  UNL1        0.2525
     24 O         139.5037  147.2187  155.6219 O.3     1  UNL1       -0.4713
     25 C         140.1750  147.7572  154.3933 C.3     1  UNL1        0.2525
     26 C         139.6575  141.4744  166.5625 C.3     1  UNL1        0.0991
     27 C         140.2564  141.2530  167.9198 C.ar    1  UNL1       -0.0062
     28 C         139.7107  140.1796  168.8143 C.ar    1  UNL1       -0.0029
     29 C         140.3096  139.9581  170.1717 C.ar    1  UNL1       -0.0003
     30 C         141.4541  140.8101  170.6345 C.ar    1  UNL1        0.0038
     31 C         141.9998  141.8835  169.7400 C.ar    1  UNL1        0.0712
     32 C         141.4009  142.1049  168.3827 C.ar    1  UNL1        0.0009
     33 C         143.1443  142.7353  170.2029 C.3     1  UNL1        0.4186
     34 F         144.2890  143.5871  170.6659 F       1  UNL1       -0.1659
     35 F         142.2148  143.9030  170.3529 F       1  UNL1       -0.1659
     36 F         144.0739  141.5677  170.0530 F       1  UNL1       -0.1659
@<TRIPOS>BOND
     1     9    10    1
     2    10     7    1
     3     7     8    2
     4     7     1    1
     5     1    11    1
     6    11    12    1
     7    12    13   am
     8    13    14    2
     9    13    16    1
    10    16    17   ar
    11    17    18   ar
    12    18    22    1
    13    22    23    1
    14    18    19   ar
    15    19    20   ar
    16    20    24    1
    17    24    25    1
    18    20    21   ar
    19     1     2    1
    20     2     3    1
    21     3     4    1
    22     4    26    1
    23    26    27    1
    24    27    28   ar
    25    28    29   ar
    26    29    30   ar
    27    30    31   ar
    28    31    33    1
    29    33    34    1
    30    33    35    1
    31    33    36    1
    32    31    32   ar
    33     4     5    1
    34     5     6    1
    35     6     1    1
    36    21    16   ar
    37    32    27   ar
    38    12    15    1
@<TRIPOS>MOLECULE
*****
 36 38 0 0 0
SMALL
GASTEIGER

@<TRIPOS>ATOM
      1 C         142.4387  143.8516  163.5487 C.3     1  UNL1        0.1102
      2 C         141.1829  144.2486  164.2664 C.3     1  UNL1        0.0296
      3 C         140.7420  143.4891  165.4825 C.3     1  UNL1        0.0730
      4 N         141.5570  142.3325  165.9807 N.3     1  UNL1       -0.2689
      5 C         142.8129  141.9356  165.2630 C.3     1  UNL1        0.0730
      6 C         143.2537  142.6951  164.0469 C.3     1  UNL1        0.0296
      7 C         143.5450  143.8569  162.5357 C.2     1  UNL1        0.3177
      8 O         144.4891  145.0202  162.4623 O.2     1  UNL1       -0.2501
      9 C         144.8682  142.6599  160.6473 C.3     1  UNL1        0.2556
     10 O         143.7071  142.6990  161.5960 O.3     1  UNL1       -0.4444
     11 C         142.0079  145.0100  162.6987 C.3     1  UNL1        0.1002
     12 N         141.7465  144.8100  161.2352 N.am    1  UNL1       -0.3003
     13 C         140.3600  144.9856  160.6902 C.2     1  UNL1        0.2461
     14 O         139.2351  145.3612  161.6086 O.2     1  UNL1       -0.2701
     15 H         142.4848  144.5635  160.6324 H       1  UNL1        0.1498
     16 C         140.0986  144.7857  159.2267 C.ar    1  UNL1        0.0594
     17 C         140.3515  145.9043  158.2600 C.ar    1  UNL1        0.0416
     18 C         140.0900  145.7044  156.7965 C.ar    1  UNL1        0.1419
     19 C         139.5757  144.3858  156.2998 C.ar    1  UNL1        0.0738
     20 C         139.3227  143.2671  157.2666 C.ar    1  UNL1        0.1419
     21 C         139.5842  143.4670  158.7301 C.ar    1  UNL1        0.0416
     22 O         140.3430  146.8231  155.8298 O.3     1  UNL1       -0.4713
     23 C         139.2021  147.6675  155.3447 C.3     1  UNL1        0.2525
     24 O         138.8084  141.9485  156.7699 O.3     1  UNL1       -0.4713
     25 C         137.3350  141.7420  156.5789 C.3     1  UNL1        0.2525
     26 C         141.1162  141.5730  167.1968 C.3     1  UNL1        0.0991
     27 C         140.0533  140.5212  167.0796 C.ar    1  UNL1       -0.0062
     28 C         139.1576  140.2267  168.2463 C.ar    1  UNL1       -0.0029
     29 C         138.0947  139.1748  168.1292 C.ar    1  UNL1       -0.0003
     30 C         137.9273  138.4174  166.8453 C.ar    1  UNL1        0.0038
     31 C         138.8229  138.7119  165.6786 C.ar    1  UNL1        0.0712
     32 C         139.8858  139.7637  165.7958 C.ar    1  UNL1        0.0009
     33 C         138.6555  137.9545  164.3947 C.3     1  UNL1        0.4186
     34 F         138.4881  137.1971  163.1109 F       1  UNL1       -0.1659
     35 F         138.8650  136.6634  165.1290 F       1  UNL1       -0.1659
     36 F         138.4460  139.2455  163.6605 F       1  UNL1       -0.1659
@<TRIPOS>BOND
     1     9    10    1
     2    10     7    1
     3     7     8    2
     4     7     1    1
     5     1    11    1
     6    11    12    1
     7    12    13   am
     8    13    14    2
     9    13    16    1
    10    16    17   ar
    11    17    18   ar
    12    18    22    1
    13    22    23    1
    14    18    19   ar
    15    19    20   ar
    16    20    24    1
    17    24    25    1
    18    20    21   ar
    19     1     2    1
    20     2     3    1
    21     3     4    1
    22     4    26    1
    23    26    27    1
    24    27    28   ar
    25    28    29   ar
    26    29    30   ar
    27    30    31   ar
    28    31    33    1
    29    33    34    1
    30    33    35    1
    31    33    36    1
    32    31    32   ar
    33     4     5    1
    34     5     6    1
    35     6     1    1
    36    21    16   ar
    37    32    27   ar
    38    12    15    1
@<TRIPOS>MOLECULE
*****
 36 38 0 0 0
SMALL
GASTEIGER

@<TRIPOS>ATOM
      1 C         143.0633  139.3242  159.8129 C.3     1  UNL1        0.1102
      2 C         142.3471  138.1428  160.3970 C.3     1  UNL1        0.0296
      3 C         142.3495  137.9227  161.8808 C.3     1  UNL1        0.0730
      4 N         143.0682  138.8841  162.7804 N.3     1  UNL1       -0.2689
      5 C         143.7844  140.0655  162.1963 C.3     1  UNL1        0.0730
      6 C         143.7820  140.2856  160.7126 C.3     1  UNL1        0.0296
      7 C         143.5939  140.2881  158.7933 C.2     1  UNL1        0.3177
      8 O         143.1107  141.7080  158.7808 O.2     1  UNL1       -0.2501
      9 C         145.1012  140.7818  156.7356 C.3     1  UNL1        0.2556
     10 O         144.6078  139.8319  157.7864 O.3     1  UNL1       -0.4444
     11 C         142.5289  138.6976  158.5592 C.3     1  UNL1        0.1002
     12 N         142.9829  137.3267  158.1536 N.am    1  UNL1       -0.3003
     13 C         142.3634  136.6525  156.9654 C.2     1  UNL1        0.2461
     14 O         141.2899  137.3492  156.1830 O.2     1  UNL1       -0.2701
     15 H         143.6875  136.8694  158.6671 H       1  UNL1        0.1498
     16 C         142.8174  135.2816  156.5598 C.ar    1  UNL1        0.0594
     17 C         143.6288  134.4492  157.5077 C.ar    1  UNL1        0.0416
     18 C         144.0828  133.0783  157.1020 C.ar    1  UNL1        0.1419
     19 C         143.7253  132.5398  155.7484 C.ar    1  UNL1        0.0738
     20 C         142.9139  133.3723  154.8004 C.ar    1  UNL1        0.1419
     21 C         142.4599  134.7431  155.2061 C.ar    1  UNL1        0.0416
     22 O         144.8942  132.2458  158.0501 O.3     1  UNL1       -0.4713
     23 C         144.8107  130.7492  157.9941 C.3     1  UNL1        0.2525
     24 O         142.5565  132.8338  153.4468 O.3     1  UNL1       -0.4713
     25 C         143.0090  131.4622  153.0418 C.3     1  UNL1        0.2525
     26 C         143.0706  138.6640  164.2642 C.3     1  UNL1        0.0991
     27 C         142.1392  139.4482  165.1402 C.ar    1  UNL1       -0.0062
     28 C         142.5539  140.7917  165.6626 C.ar    1  UNL1       -0.0029
     29 C         141.6225  141.5760  166.5387 C.ar    1  UNL1       -0.0003
     30 C         140.2764  141.0167  166.8924 C.ar    1  UNL1        0.0038
     31 C         139.8617  139.6731  166.3700 C.ar    1  UNL1        0.0712
     32 C         140.7930  138.8889  165.4940 C.ar    1  UNL1        0.0009
     33 C         138.5155  139.1138  166.7237 C.3     1  UNL1        0.4186
     34 F         137.1694  138.5546  167.0776 F       1  UNL1       -0.1659
     35 F         138.3135  138.6975  165.2969 F       1  UNL1       -0.1659
     36 F         138.7176  139.5302  168.1506 F       1  UNL1       -0.1659
@<TRIPOS>BOND
     1     9    10    1
     2    10     7    1
     3     7     8    2
     4     7     1    1
     5     1    11    1
     6    11    12    1
     7    12    13   am
     8    13    14    2
     9    13    16    1
    10    16    17   ar
    11    17    18   ar
    12    18    22    1
    13    22    23    1
    14    18    19   ar
    15    19    20   ar
    16    20    24    1
    17    24    25    1
    18    20    21   ar
    19     1     2    1
    20     2     3    1
    21     3     4    1
    22     4    26    1
    23    26    27    1
    24    27    28   ar
    25    28    29   ar
    26    29    30   ar
    27    30    31   ar
    28    31    33    1
    29    33    34    1
    30    33    35    1
    31    33    36    1
    32    31    32   ar
    33     4     5    1
    34     5     6    1
    35     6     1    1
    36    21    16   ar
    37    32    27   ar
    38    12    15    1
@<TRIPOS>MOLECULE
*****
 36 38 0 0 0
SMALL
GASTEIGER

@<TRIPOS>ATOM
      1 C         143.8369  140.5417  161.7834 C.3     1  UNL1        0.1102
      2 C         143.2300  139.1717  161.8510 C.3     1  UNL1        0.0296
      3 C         142.5843  138.5766  160.6349 C.3     1  UNL1        0.0730
      4 N         142.5455  139.3517  159.3512 N.3     1  UNL1       -0.2689
      5 C         143.1523  140.7217  159.2836 C.3     1  UNL1        0.0730
      6 C         143.7981  141.3168  160.4997 C.3     1  UNL1        0.0296
      7 C         144.5423  141.7937  162.2136 C.2     1  UNL1        0.3177
      8 O         145.9236  141.7148  162.7931 O.2     1  UNL1       -0.2501
      9 C         144.1505  144.2240  163.0441 C.3     1  UNL1        0.2556
     10 O         143.8665  143.1244  162.0643 O.3     1  UNL1       -0.4444
     11 C         144.1207  140.2014  163.2165 C.3     1  UNL1        0.1002
     12 N         143.1830  140.6563  164.2952 N.am    1  UNL1       -0.3003
     13 C         143.0444  139.8548  165.5556 C.2     1  UNL1        0.2461
     14 O         143.8436  138.5985  165.7371 O.2     1  UNL1       -0.2701
     15 H         142.6585  141.4809  164.1761 H       1  UNL1        0.1498
     16 C         142.1067  140.3097  166.6344 C.ar    1  UNL1        0.0594
     17 C         142.4702  141.4796  167.4999 C.ar    1  UNL1        0.0416
     18 C         141.5325  141.9345  168.5787 C.ar    1  UNL1        0.1419
     19 C         140.2313  141.2194  168.7920 C.ar    1  UNL1        0.0738
     20 C         139.8677  140.0494  167.9265 C.ar    1  UNL1        0.1419
     21 C         140.8055  139.5946  166.8477 C.ar    1  UNL1        0.0416
     22 O         141.8960  143.1045  169.4442 O.3     1  UNL1       -0.4713
     23 C         142.9761  142.9672  170.4759 C.3     1  UNL1        0.2525
     24 O         138.5665  139.3344  168.1398 O.3     1  UNL1       -0.4713
     25 C         137.8548  138.7094  166.9767 C.3     1  UNL1        0.2525
     26 C         141.8998  138.7566  158.1350 C.3     1  UNL1        0.0991
     27 C         142.6727  137.8142  157.2607 C.ar    1  UNL1       -0.0062
     28 C         143.4269  138.3391  156.0751 C.ar    1  UNL1       -0.0029
     29 C         144.1999  137.3967  155.2007 C.ar    1  UNL1       -0.0003
     30 C         144.2186  135.9295  155.5119 C.ar    1  UNL1        0.0038
     31 C         143.4644  135.4046  156.6976 C.ar    1  UNL1        0.0712
     32 C         142.6915  136.3470  157.5719 C.ar    1  UNL1        0.0009
     33 C         143.4831  133.9374  157.0087 C.3     1  UNL1        0.4186
     34 F         143.5019  132.4701  157.3198 F       1  UNL1       -0.1659
     35 F         143.4269  134.2476  158.4752 F       1  UNL1       -0.1659
     36 F         143.5393  133.6272  155.5423 F       1  UNL1       -0.1659
@<TRIPOS>BOND
     1     9    10    1
     2    10     7    1
     3     7     8    2
     4     7     1    1
     5     1    11    1
     6    11    12    1
     7    12    13   am
     8    13    14    2
     9    13    16    1
    10    16    17   ar
    11    17    18   ar
    12    18    22    1
    13    22    23    1
    14    18    19   ar
    15    19    20   ar
    16    20    24    1
    17    24    25    1
    18    20    21   ar
    19     1     2    1
    20     2     3    1
    21     3     4    1
    22     4    26    1
    23    26    27    1
    24    27    28   ar
    25    28    29   ar
    26    29    30   ar
    27    30    31   ar
    28    31    33    1
    29    33    34    1
    30    33    35    1
    31    33    36    1
    32    31    32   ar
    33     4     5    1
    34     5     6    1
    35     6     1    1
    36    21    16   ar
    37    32    27   ar
    38    12    15    1
@<TRIPOS>MOLECULE
*****
 36 38 0 0 0
SMALL
GASTEIGER

@<TRIPOS>ATOM
      1 C         139.6357  142.9151  163.0658 C.3     1  UNL1        0.1102
      2 C         139.7406  141.4214  163.1536 C.3     1  UNL1        0.0296
      3 C         140.8630  140.7924  163.9246 C.3     1  UNL1        0.0730
      4 N         141.8806  141.6571  164.6078 N.3     1  UNL1       -0.2689
      5 C         141.7757  143.1508  164.5201 C.3     1  UNL1        0.0730
      6 C         140.6533  143.7799  163.7491 C.3     1  UNL1        0.0296
      7 C         139.1146  144.2723  162.6961 C.2     1  UNL1        0.3177
      8 O         137.6859  144.6300  162.9802 O.2     1  UNL1       -0.2501
      9 C         139.4477  146.5002  161.4017 C.3     1  UNL1        0.2556
     10 O         140.0223  145.2717  162.0425 O.3     1  UNL1       -0.4444
     11 C         138.4372  142.5217  162.2542 C.3     1  UNL1        0.1002
     12 N         138.3164  142.9717  160.8284 N.am    1  UNL1       -0.3003
     13 C         138.5218  141.9907  159.7124 C.2     1  UNL1        0.2461
     14 O         138.8481  140.5598  160.0222 O.2     1  UNL1       -0.2701
     15 H         138.1022  143.9109  160.6251 H       1  UNL1        0.1498
     16 C         138.4010  142.4407  158.2866 C.ar    1  UNL1        0.0594
     17 C         137.3831  141.8084  157.3843 C.ar    1  UNL1        0.0416
     18 C         137.2623  142.2584  155.9585 C.ar    1  UNL1        0.1419
     19 C         138.1593  143.3406  155.4349 C.ar    1  UNL1        0.0738
     20 C         139.1772  143.9729  156.3373 C.ar    1  UNL1        0.1419
     21 C         139.2980  143.5229  157.7631 C.ar    1  UNL1        0.0416
     22 O         136.2443  141.6260  155.0562 O.3     1  UNL1       -0.4713
     23 C         135.0142  140.9958  155.6388 C.3     1  UNL1        0.2525
     24 O         140.0742  145.0551  155.8137 O.3     1  UNL1       -0.4713
     25 C         140.3126  146.2914  156.6290 C.3     1  UNL1        0.2525
     26 C         143.0030  141.0280  165.3788 C.3     1  UNL1        0.0991
     27 C         142.8804  140.8384  166.8617 C.ar    1  UNL1       -0.0062
     28 C         142.4747  139.5050  167.4163 C.ar    1  UNL1       -0.0029
     29 C         142.3521  139.3153  168.8993 C.ar    1  UNL1       -0.0003
     30 C         142.6352  140.4590  169.8276 C.ar    1  UNL1        0.0038
     31 C         143.0409  141.7924  169.2730 C.ar    1  UNL1        0.0712
     32 C         143.1635  141.9820  167.7901 C.ar    1  UNL1        0.0009
     33 C         143.3240  142.9360  170.2014 C.3     1  UNL1        0.4186
     34 F         143.6071  144.0797  171.1298 F       1  UNL1       -0.1659
     35 F         141.8589  143.2527  170.2581 F       1  UNL1       -0.1659
     36 F         144.7890  142.6194  170.1446 F       1  UNL1       -0.1659
@<TRIPOS>BOND
     1     9    10    1
     2    10     7    1
     3     7     8    2
     4     7     1    1
     5     1    11    1
     6    11    12    1
     7    12    13   am
     8    13    14    2
     9    13    16    1
    10    16    17   ar
    11    17    18   ar
    12    18    22    1
    13    22    23    1
    14    18    19   ar
    15    19    20   ar
    16    20    24    1
    17    24    25    1
    18    20    21   ar
    19     1     2    1
    20     2     3    1
    21     3     4    1
    22     4    26    1
    23    26    27    1
    24    27    28   ar
    25    28    29   ar
    26    29    30   ar
    27    30    31   ar
    28    31    33    1
    29    33    34    1
    30    33    35    1
    31    33    36    1
    32    31    32   ar
    33     4     5    1
    34     5     6    1
    35     6     1    1
    36    21    16   ar
    37    32    27   ar
    38    12    15    1
@<TRIPOS>MOLECULE
*****
 36 38 0 0 0
SMALL
GASTEIGER

@<TRIPOS>ATOM
      1 C         143.1325  139.6612  159.2763 C.3     1  UNL1        0.1102
      2 C         142.2266  138.5787  159.7835 C.3     1  UNL1        0.0296
      3 C         141.9431  138.4649  161.2521 C.3     1  UNL1        0.0730
      4 N         142.5655  139.4337  162.2134 N.3     1  UNL1       -0.2689
      5 C         143.4714  140.5162  161.7062 C.3     1  UNL1        0.0730
      6 C         143.7550  140.6300  160.2376 C.3     1  UNL1        0.0296
      7 C         143.9170  140.5097  158.3198 C.2     1  UNL1        0.3177
      8 O         144.8491  139.8657  157.3368 O.2     1  UNL1       -0.2501
      9 C         142.7142  142.6664  157.5123 C.3     1  UNL1        0.2556
     10 O         143.7692  142.0021  158.3464 O.3     1  UNL1       -0.4444
     11 C         142.7825  138.9871  157.9829 C.3     1  UNL1        0.1002
     12 N         142.8866  137.4956  157.8623 N.am    1  UNL1       -0.3003
     13 C         142.5026  136.8182  156.5801 C.2     1  UNL1        0.2461
     14 O         142.0146  137.6324  155.4187 O.2     1  UNL1       -0.2701
     15 H         143.2069  136.9613  158.6246 H       1  UNL1        0.1498
     16 C         142.6067  135.3267  156.4595 C.ar    1  UNL1        0.0594
     17 C         141.7205  134.5882  155.5009 C.ar    1  UNL1        0.0416
     18 C         141.8245  133.0966  155.3803 C.ar    1  UNL1        0.1419
     19 C         142.8148  132.3437  156.2183 C.ar    1  UNL1        0.0738
     20 C         143.7011  133.0823  157.1770 C.ar    1  UNL1        0.1419
     21 C         143.5970  134.5738  157.2977 C.ar    1  UNL1        0.0416
     22 O         140.9382  132.3581  154.4215 O.3     1  UNL1       -0.4713
     23 C         140.4476  130.9820  154.7616 C.3     1  UNL1        0.2525
     24 O         144.6913  132.3293  158.0151 O.3     1  UNL1       -0.4713
     25 C         144.7702  130.8343  157.9212 C.3     1  UNL1        0.2525
     26 C         142.2819  139.3198  163.6819 C.3     1  UNL1        0.0991
     27 C         140.9086  139.6187  164.2060 C.ar    1  UNL1       -0.0062
     28 C         140.2685  140.9446  163.9191 C.ar    1  UNL1       -0.0029
     29 C         138.8951  141.2435  164.4432 C.ar    1  UNL1       -0.0003
     30 C         138.1619  140.2165  165.2541 C.ar    1  UNL1        0.0038
     31 C         138.8021  138.8906  165.5410 C.ar    1  UNL1        0.0712
     32 C         140.1754  138.5918  165.0170 C.ar    1  UNL1        0.0009
     33 C         138.0688  137.8637  166.3520 C.3     1  UNL1        0.4186
     34 F         137.3355  136.8368  167.1630 F       1  UNL1       -0.1659
     35 F         138.6327  136.7767  165.4857 F       1  UNL1       -0.1659
     36 F         137.5049  138.9506  167.2184 F       1  UNL1       -0.1659
@<TRIPOS>BOND
     1     9    10    1
     2    10     7    1
     3     7     8    2
     4     7     1    1
     5     1    11    1
     6    11    12    1
     7    12    13   am
     8    13    14    2
     9    13    16    1
    10    16    17   ar
    11    17    18   ar
    12    18    22    1
    13    22    23    1
    14    18    19   ar
    15    19    20   ar
    16    20    24    1
    17    24    25    1
    18    20    21   ar
    19     1     2    1
    20     2     3    1
    21     3     4    1
    22     4    26    1
    23    26    27    1
    24    27    28   ar
    25    28    29   ar
    26    29    30   ar
    27    30    31   ar
    28    31    33    1
    29    33    34    1
    30    33    35    1
    31    33    36    1
    32    31    32   ar
    33     4     5    1
    34     5     6    1
    35     6     1    1
    36    21    16   ar
    37    32    27   ar
    38    12    15    1
@<TRIPOS>MOLECULE
*****
 36 38 0 0 0
SMALL
GASTEIGER

@<TRIPOS>ATOM
      1 C         139.0298  139.0697  162.7860 C.3     1  UNL1        0.1102
      2 C         138.3146  140.2203  163.4297 C.3     1  UNL1        0.0296
      3 C         138.1691  140.2729  164.9217 C.3     1  UNL1        0.0730
      4 N         138.7389  139.1748  165.7700 N.3     1  UNL1       -0.2689
      5 C         139.4541  138.0242  165.1263 C.3     1  UNL1        0.0730
      6 C         139.5996  137.9716  163.6343 C.3     1  UNL1        0.0296
      7 C         139.6182  138.1949  161.7190 C.2     1  UNL1        0.3177
      8 O         138.8477  137.9257  160.4605 O.2     1  UNL1       -0.2501
      9 C         142.0775  137.8931  160.9375 C.3     1  UNL1        0.2556
     10 O         140.9770  137.5892  161.9104 O.3     1  UNL1       -0.4444
     11 C         138.6644  139.8639  161.5672 C.3     1  UNL1        0.1002
     12 N         139.7274  140.5944  160.8014 N.am    1  UNL1       -0.3003
     13 C         139.4825  141.9974  160.3306 C.2     1  UNL1        0.2461
     14 O         138.1746  142.6699  160.6256 O.2     1  UNL1       -0.2701
     15 H         140.5859  140.1530  160.6078 H       1  UNL1        0.1498
     16 C         140.5456  142.7278  159.5648 C.ar    1  UNL1        0.0594
     17 C         141.8998  142.1085  159.3849 C.ar    1  UNL1        0.0416
     18 C         142.9628  142.8389  158.6191 C.ar    1  UNL1        0.1419
     19 C         142.6717  144.1887  158.0333 C.ar    1  UNL1        0.0738
     20 C         141.3174  144.8081  158.2132 C.ar    1  UNL1        0.1419
     21 C         140.2543  144.0777  158.9790 C.ar    1  UNL1        0.0416
     22 O         144.3171  142.2195  158.4392 O.3     1  UNL1       -0.4713
     23 C         144.4540  140.9126  157.7158 C.3     1  UNL1        0.2525
     24 O         141.0262  146.1579  157.6274 O.3     1  UNL1       -0.4713
     25 C         139.8700  146.3343  156.6882 C.3     1  UNL1        0.2525
     26 C         138.5934  139.2274  167.2620 C.3     1  UNL1        0.0991
     27 C         139.4899  140.1162  168.0721 C.ar    1  UNL1       -0.0062
     28 C         139.1800  140.3782  169.5162 C.ar    1  UNL1       -0.0029
     29 C         140.0765  141.2670  170.3264 C.ar    1  UNL1       -0.0003
     30 C         141.2828  141.8938  169.6925 C.ar    1  UNL1        0.0038
     31 C         141.5927  141.6318  168.2484 C.ar    1  UNL1        0.0712
     32 C         140.6962  140.7431  167.4383 C.ar    1  UNL1        0.0009
     33 C         142.7990  142.2587  167.6146 C.3     1  UNL1        0.4186
     34 F         144.0053  142.8855  166.9806 F       1  UNL1       -0.1659
     35 F         143.3673  142.5399  168.9740 F       1  UNL1       -0.1659
     36 F         142.2308  141.9774  166.2552 F       1  UNL1       -0.1659
@<TRIPOS>BOND
     1     9    10    1
     2    10     7    1
     3     7     8    2
     4     7     1    1
     5     1    11    1
     6    11    12    1
     7    12    13   am
     8    13    14    2
     9    13    16    1
    10    16    17   ar
    11    17    18   ar
    12    18    22    1
    13    22    23    1
    14    18    19   ar
    15    19    20   ar
    16    20    24    1
    17    24    25    1
    18    20    21   ar
    19     1     2    1
    20     2     3    1
    21     3     4    1
    22     4    26    1
    23    26    27    1
    24    27    28   ar
    25    28    29   ar
    26    29    30   ar
    27    30    31   ar
    28    31    33    1
    29    33    34    1
    30    33    35    1
    31    33    36    1
    32    31    32   ar
    33     4     5    1
    34     5     6    1
    35     6     1    1
    36    21    16   ar
    37    32    27   ar
    38    12    15    1
@<TRIPOS>MOLECULE
*****
 36 38 0 0 0
SMALL
GASTEIGER

@<TRIPOS>ATOM
      1 C         143.0322  139.2582  160.0618 C.3     1  UNL1        0.1102
      2 C         142.2312  138.0437  160.4266 C.3     1  UNL1        0.0296
      3 C         142.0491  137.6704  161.8680 C.3     1  UNL1        0.0730
      4 N         142.6681  138.5118  162.9445 N.3     1  UNL1       -0.2689
      5 C         143.4691  139.7264  162.5797 C.3     1  UNL1        0.0730
      6 C         143.6512  140.0996  161.1384 C.3     1  UNL1        0.0296
      7 C         143.6987  140.3072  159.2218 C.2     1  UNL1        0.3177
      8 O         144.4605  139.9107  157.9920 O.2     1  UNL1       -0.2501
      9 C         142.8822  142.7228  158.7235 C.3     1  UNL1        0.2556
     10 O         143.6032  141.7525  159.6115 O.3     1  UNL1       -0.4444
     11 C         142.6447  138.7811  158.6936 C.3     1  UNL1        0.1002
     12 N         142.9784  137.3831  158.2643 N.am    1  UNL1       -0.3003
     13 C         142.5543  136.8925  156.9117 C.2     1  UNL1        0.2461
     14 O         141.7964  137.7998  155.9885 O.2     1  UNL1       -0.2701
     15 H         143.4758  136.7876  158.8703 H       1  UNL1        0.1498
     16 C         142.8880  135.4945  156.4824 C.ar    1  UNL1        0.0594
     17 C         142.4768  135.0087  155.1242 C.ar    1  UNL1        0.0416
     18 C         142.8106  133.6107  154.6949 C.ar    1  UNL1        0.1419
     19 C         143.5555  132.6985  155.6239 C.ar    1  UNL1        0.0738
     20 C         143.9667  133.1843  156.9822 C.ar    1  UNL1        0.1419
     21 C         143.6329  134.5823  157.4115 C.ar    1  UNL1        0.0416
     22 O         142.3994  133.1249  153.3366 O.3     1  UNL1       -0.4713
     23 C         141.2041  132.2306  153.1900 C.3     1  UNL1        0.2525
     24 O         144.7115  132.2722  157.9112 O.3     1  UNL1       -0.4713
     25 C         144.5386  130.7862  157.8018 C.3     1  UNL1        0.2525
     26 C         142.4860  138.1386  164.3859 C.3     1  UNL1        0.0991
     27 C         141.2036  138.4693  165.0901 C.ar    1  UNL1       -0.0062
     28 C         139.9333  137.7726  164.7015 C.ar    1  UNL1       -0.0029
     29 C         138.6508  138.1033  165.4056 C.ar    1  UNL1       -0.0003
     30 C         138.6385  139.1307  166.4984 C.ar    1  UNL1        0.0038
     31 C         139.9088  139.8275  166.8870 C.ar    1  UNL1        0.0712
     32 C         141.1913  139.4968  166.1828 C.ar    1  UNL1        0.0009
     33 C         139.8965  140.8549  167.9797 C.3     1  UNL1        0.4186
     34 F         139.8841  141.8825  169.0725 F       1  UNL1       -0.1659
     35 F         139.8566  139.7624  169.0067 F       1  UNL1       -0.1659
     36 F         139.9364  141.9475  166.9528 F       1  UNL1       -0.1659
@<TRIPOS>BOND
     1     9    10    1
     2    10     7    1
     3     7     8    2
     4     7     1    1
     5     1    11    1
     6    11    12    1
     7    12    13   am
     8    13    14    2
     9    13    16    1
    10    16    17   ar
    11    17    18   ar
    12    18    22    1
    13    22    23    1
    14    18    19   ar
    15    19    20   ar
    16    20    24    1
    17    24    25    1
    18    20    21   ar
    19     1     2    1
    20     2     3    1
    21     3     4    1
    22     4    26    1
    23    26    27    1
    24    27    28   ar
    25    28    29   ar
    26    29    30   ar
    27    30    31   ar
    28    31    33    1
    29    33    34    1
    30    33    35    1
    31    33    36    1
    32    31    32   ar
    33     4     5    1
    34     5     6    1
    35     6     1    1
    36    21    16   ar
    37    32    27   ar
    38    12    15    1
