@<TRIPOS>MOLECULE
*****
 26 29 0 0 0
SMALL
GASTEIGER

@<TRIPOS>ATOM
      1 C         141.4413  140.9707  167.2565 C.3     1  UNL1        0.0847
      2 N         141.1625  141.3521  168.6801 N.3     1  UNL1       -0.2676
      3 C         140.4083  142.6123  168.9851 C.3     1  UNL1        0.0896
      4 C         140.1295  142.9936  170.4088 C.3     1  UNL1        0.0862
      5 N         140.6049  142.1147  171.5275 N.3     1  UNL1       -0.2951
      6 C         141.3591  140.8545  171.2226 C.3     1  UNL1        0.0862
      7 C         141.6379  140.4732  169.7989 C.3     1  UNL1        0.0896
      8 H         139.7783  141.8418  172.0592 H       1  UNL1        0.1233
      9 C         138.9381  137.8221  165.2390 C.ar    1  UNL1       -0.0000
     10 C         140.3813  137.9865  164.8647 C.ar    1  UNL1       -0.0003
     11 C         141.2157  139.0360  165.5372 C.ar    1  UNL1       -0.0030
     12 C         140.6069  139.9212  166.5840 C.ar    1  UNL1       -0.0075
     13 C         139.1637  139.7569  166.9582 C.ar    1  UNL1       -0.0030
     14 C         138.3293  138.7073  166.2857 C.ar    1  UNL1       -0.0003
     15 C         142.5545  141.6389  166.5054 C.3     1  UNL1        0.0499
     16 C         142.2523  142.7647  165.5613 C.ar    1  UNL1        0.0135
     17 C         140.8360  143.2163  165.3615 C.ar    1  UNL1       -0.0012
     18 C         140.5338  144.3421  164.4174 C.ar    1  UNL1       -0.0001
     19 C         141.6480  145.0163  163.6731 C.ar    1  UNL1        0.0031
     20 C         143.0644  144.5647  163.8728 C.ar    1  UNL1        0.0366
     21 C         143.3666  143.4389  164.8169 C.ar    1  UNL1        0.1346
     22 O         144.7829  142.9873  165.0167 O.3     1  UNL1       -0.4758
     23 C         145.4189  142.0540  164.0295 C.3     1  UNL1        0.2053
     24 C         144.9571  140.6298  163.9387 C.3     1  UNL1        0.0438
     25 C         144.1959  139.5542  163.2220 C.3     1  UNL1        0.0038
     26 C         144.9182  139.2386  164.4982 C.3     1  UNL1        0.0038
@<TRIPOS>BOND
     1     9    10   ar
     2    10    11   ar
     3    11    12   ar
     4    12     1    1
     5     1    15    1
     6    15    16    1
     7    16    17   ar
     8    17    18   ar
     9    18    19   ar
    10    19    20   ar
    11    20    21   ar
    12    21    22    1
    13    22    23    1
    14    23    24    1
    15    24    25    1
    16    25    26    1
    17     1     2    1
    18     2     3    1
    19     3     4    1
    20     4     5    1
    21     5     6    1
    22     6     7    1
    23    12    13   ar
    24    13    14   ar
    25    14     9   ar
    26    21    16   ar
    27    26    24    1
    28     7     2    1
    29     5     8    1
@<TRIPOS>MOLECULE
*****
 26 29 0 0 0
SMALL
GASTEIGER

@<TRIPOS>ATOM
      1 C         140.3392  141.1407  167.5227 C.3     1  UNL1        0.0847
      2 N         140.9606  140.9883  168.8794 N.3     1  UNL1       -0.2676
      3 C         140.4621  141.8121  170.0295 C.3     1  UNL1        0.0896
      4 C         141.0836  141.6597  171.3862 C.3     1  UNL1        0.0862
      5 N         142.2036  140.6836  171.5927 N.3     1  UNL1       -0.2951
      6 C         142.7022  139.8598  170.4426 C.3     1  UNL1        0.0862
      7 C         142.0807  140.0121  169.0859 C.3     1  UNL1        0.0896
      8 H         141.8950  140.0292  172.3117 H       1  UNL1        0.1233
      9 C         138.8528  137.5159  165.3088 C.ar    1  UNL1       -0.0000
     10 C         140.1921  138.1023  164.9739 C.ar    1  UNL1       -0.0003
     11 C         140.6876  139.3106  165.7118 C.ar    1  UNL1       -0.0030
     12 C         139.8437  139.9324  166.7848 C.ar    1  UNL1       -0.0075
     13 C         138.5044  139.3459  167.1197 C.ar    1  UNL1       -0.0030
     14 C         138.0089  138.1377  166.3817 C.ar    1  UNL1       -0.0003
     15 C         140.2132  142.5013  166.9041 C.3     1  UNL1        0.0499
     16 C         141.2053  142.9511  165.8729 C.ar    1  UNL1        0.0135
     17 C         142.6151  142.4408  165.9157 C.ar    1  UNL1       -0.0012
     18 C         143.6073  142.8906  164.8845 C.ar    1  UNL1       -0.0001
     19 C         143.1895  143.8507  163.8105 C.ar    1  UNL1        0.0031
     20 C         141.7796  144.3611  163.7676 C.ar    1  UNL1        0.0366
     21 C         140.7875  143.9113  164.7988 C.ar    1  UNL1        0.1346
     22 O         139.3776  144.4216  164.7559 O.3     1  UNL1       -0.4758
     23 C         138.3771  143.7847  163.8375 C.3     1  UNL1        0.2053
     24 C         138.4198  142.3056  163.5917 C.3     1  UNL1        0.0438
     25 C         137.8328  140.9390  163.7860 C.3     1  UNL1        0.0038
     26 C         139.0807  141.1104  162.9715 C.3     1  UNL1        0.0038
@<TRIPOS>BOND
     1     9    10   ar
     2    10    11   ar
     3    11    12   ar
     4    12     1    1
     5     1    15    1
     6    15    16    1
     7    16    17   ar
     8    17    18   ar
     9    18    19   ar
    10    19    20   ar
    11    20    21   ar
    12    21    22    1
    13    22    23    1
    14    23    24    1
    15    24    25    1
    16    25    26    1
    17     1     2    1
    18     2     3    1
    19     3     4    1
    20     4     5    1
    21     5     6    1
    22     6     7    1
    23    12    13   ar
    24    13    14   ar
    25    14     9   ar
    26    21    16   ar
    27    26    24    1
    28     7     2    1
    29     5     8    1
@<TRIPOS>MOLECULE
*****
 26 29 0 0 0
SMALL
GASTEIGER

@<TRIPOS>ATOM
      1 C         140.9876  142.5282  166.5227 C.3     1  UNL1        0.0847
      2 N         140.4628  142.1315  167.8707 N.3     1  UNL1       -0.2676
      3 C         139.8900  140.7609  168.0789 C.3     1  UNL1        0.0896
      4 C         139.3652  140.3641  169.4270 C.3     1  UNL1        0.0862
      5 N         139.4133  141.3380  170.5669 N.3     1  UNL1       -0.2951
      6 C         139.9861  142.7086  170.3587 C.3     1  UNL1        0.0862
      7 C         140.5109  143.1053  169.0107 C.3     1  UNL1        0.0896
      8 H         139.9617  140.8989  171.3064 H       1  UNL1        0.1233
      9 C         138.1260  143.3814  163.1562 C.ar    1  UNL1       -0.0000
     10 C         138.2136  144.3208  164.3224 C.ar    1  UNL1       -0.0003
     11 C         139.1674  144.0364  165.4445 C.ar    1  UNL1       -0.0030
     12 C         140.0337  142.8126  165.4006 C.ar    1  UNL1       -0.0075
     13 C         139.9461  141.8733  164.2344 C.ar    1  UNL1       -0.0030
     14 C         138.9922  142.1577  163.1123 C.ar    1  UNL1       -0.0003
     15 C         142.4662  142.6406  166.2969 C.3     1  UNL1        0.0499
     16 C         143.2201  141.4983  165.6830 C.ar    1  UNL1        0.0135
     17 C         142.8600  140.0858  166.0367 C.ar    1  UNL1       -0.0012
     18 C         143.6139  138.9435  165.4229 C.ar    1  UNL1       -0.0001
     19 C         144.7278  139.2137  164.4553 C.ar    1  UNL1        0.0031
     20 C         145.0879  140.6263  164.1016 C.ar    1  UNL1        0.0366
     21 C         144.3340  141.7686  164.7155 C.ar    1  UNL1        0.1346
     22 O         144.6940  143.1811  164.3618 O.3     1  UNL1       -0.4758
     23 C         144.2017  143.7817  163.0784 C.3     1  UNL1        0.2053
     24 C         142.8802  144.4902  163.0403 C.3     1  UNL1        0.0438
     25 C         141.5700  144.7600  162.3617 C.3     1  UNL1        0.0038
     26 C         141.9014  145.4476  163.6529 C.3     1  UNL1        0.0038
@<TRIPOS>BOND
     1     9    10   ar
     2    10    11   ar
     3    11    12   ar
     4    12     1    1
     5     1    15    1
     6    15    16    1
     7    16    17   ar
     8    17    18   ar
     9    18    19   ar
    10    19    20   ar
    11    20    21   ar
    12    21    22    1
    13    22    23    1
    14    23    24    1
    15    24    25    1
    16    25    26    1
    17     1     2    1
    18     2     3    1
    19     3     4    1
    20     4     5    1
    21     5     6    1
    22     6     7    1
    23    12    13   ar
    24    13    14   ar
    25    14     9   ar
    26    21    16   ar
    27    26    24    1
    28     7     2    1
    29     5     8    1
@<TRIPOS>MOLECULE
*****
 26 29 0 0 0
SMALL
GASTEIGER

@<TRIPOS>ATOM
      1 C         141.2210  140.7065  167.3470 C.3     1  UNL1        0.0847
      2 N         141.5004  141.2025  168.7347 N.3     1  UNL1       -0.2676
      3 C         142.4145  142.3734  168.9429 C.3     1  UNL1        0.0896
      4 C         142.6939  142.8693  170.3308 C.3     1  UNL1        0.0862
      5 N         142.0593  142.1943  171.5104 N.3     1  UNL1       -0.2951
      6 C         141.1452  141.0233  171.3022 C.3     1  UNL1        0.0862
      7 C         140.8657  140.5274  169.9144 C.3     1  UNL1        0.0896
      8 H         141.5185  142.9063  172.0013 H       1  UNL1        0.1233
      9 C         144.5902  139.1882  164.7792 C.ar    1  UNL1       -0.0000
     10 C         143.9120  140.4821  164.4387 C.ar    1  UNL1       -0.0003
     11 C         142.7890  140.9882  165.2946 C.ar    1  UNL1       -0.0030
     12 C         142.3441  140.2004  166.4911 C.ar    1  UNL1       -0.0075
     13 C         143.0222  138.9066  166.8315 C.ar    1  UNL1       -0.0030
     14 C         144.1453  138.4005  165.9756 C.ar    1  UNL1       -0.0003
     15 C         139.8185  140.7167  166.8151 C.3     1  UNL1        0.0499
     16 C         139.3669  141.8259  165.9119 C.ar    1  UNL1        0.0135
     17 C         139.8503  143.2266  166.1448 C.ar    1  UNL1       -0.0012
     18 C         139.3987  144.3358  165.2416 C.ar    1  UNL1       -0.0001
     19 C         138.4638  144.0443  164.1055 C.ar    1  UNL1        0.0031
     20 C         137.9803  142.6435  163.8726 C.ar    1  UNL1        0.0366
     21 C         138.4319  141.5343  164.7758 C.ar    1  UNL1        0.1346
     22 O         137.9485  140.1336  164.5429 O.3     1  UNL1       -0.4758
     23 C         138.5971  139.2812  163.4927 C.3     1  UNL1        0.2053
     24 C         139.7728  138.4197  163.8469 C.3     1  UNL1        0.0438
     25 C         140.4352  137.4421  164.7719 C.3     1  UNL1        0.0038
     26 C         141.1469  137.9050  163.5353 C.3     1  UNL1        0.0038
@<TRIPOS>BOND
     1     9    10   ar
     2    10    11   ar
     3    11    12   ar
     4    12     1    1
     5     1    15    1
     6    15    16    1
     7    16    17   ar
     8    17    18   ar
     9    18    19   ar
    10    19    20   ar
    11    20    21   ar
    12    21    22    1
    13    22    23    1
    14    23    24    1
    15    24    25    1
    16    25    26    1
    17     1     2    1
    18     2     3    1
    19     3     4    1
    20     4     5    1
    21     5     6    1
    22     6     7    1
    23    12    13   ar
    24    13    14   ar
    25    14     9   ar
    26    21    16   ar
    27    26    24    1
    28     7     2    1
    29     5     8    1
@<TRIPOS>MOLECULE
*****
 26 29 0 0 0
SMALL
GASTEIGER

@<TRIPOS>ATOM
      1 C         140.4702  141.5392  166.8769 C.3     1  UNL1        0.0847
      2 N         140.4874  141.5144  168.3765 N.3     1  UNL1       -0.2676
      3 C         140.5599  140.2047  169.1042 C.3     1  UNL1        0.0896
      4 C         140.5770  140.1799  170.6039 C.3     1  UNL1        0.0862
      5 N         140.5216  141.4648  171.3759 N.3     1  UNL1       -0.2951
      6 C         140.4492  142.7745  170.6483 C.3     1  UNL1        0.0862
      7 C         140.4320  142.7993  169.1486 C.3     1  UNL1        0.0896
      8 H         141.3601  141.4962  171.9559 H       1  UNL1        0.1233
      9 C         143.5973  143.8672  164.6291 C.ar    1  UNL1       -0.0000
     10 C         144.0066  142.9117  165.7105 C.ar    1  UNL1       -0.0003
     11 C         142.9642  142.1357  166.4598 C.ar    1  UNL1       -0.0030
     12 C         141.5126  142.3152  166.1276 C.ar    1  UNL1       -0.0075
     13 C         141.1032  143.2707  165.0462 C.ar    1  UNL1       -0.0030
     14 C         142.1456  144.0467  164.2970 C.ar    1  UNL1       -0.0003
     15 C         139.4107  140.7880  166.1264 C.3     1  UNL1        0.0499
     16 C         139.7912  139.6396  165.2397 C.ar    1  UNL1        0.0135
     17 C         141.0614  138.8837  165.4950 C.ar    1  UNL1       -0.0012
     18 C         141.4418  137.7352  164.6082 C.ar    1  UNL1       -0.0001
     19 C         140.5522  137.3428  163.4661 C.ar    1  UNL1        0.0031
     20 C         139.2820  138.0987  163.2107 C.ar    1  UNL1        0.0366
     21 C         138.9015  139.2472  164.0975 C.ar    1  UNL1        0.1346
     22 O         137.6313  140.0031  163.8422 O.3     1  UNL1       -0.4758
     23 C         137.6125  141.1226  162.8439 C.3     1  UNL1        0.2053
     24 C         137.7147  142.5447  163.3098 C.3     1  UNL1        0.0438
     25 C         138.0330  143.9836  163.0302 C.3     1  UNL1        0.0038
     26 C         137.5735  143.5690  164.3965 C.3     1  UNL1        0.0038
@<TRIPOS>BOND
     1     9    10   ar
     2    10    11   ar
     3    11    12   ar
     4    12     1    1
     5     1    15    1
     6    15    16    1
     7    16    17   ar
     8    17    18   ar
     9    18    19   ar
    10    19    20   ar
    11    20    21   ar
    12    21    22    1
    13    22    23    1
    14    23    24    1
    15    24    25    1
    16    25    26    1
    17     1     2    1
    18     2     3    1
    19     3     4    1
    20     4     5    1
    21     5     6    1
    22     6     7    1
    23    12    13   ar
    24    13    14   ar
    25    14     9   ar
    26    21    16   ar
    27    26    24    1
    28     7     2    1
    29     5     8    1
@<TRIPOS>MOLECULE
*****
 26 29 0 0 0
SMALL
GASTEIGER

@<TRIPOS>ATOM
      1 C         141.4093  140.8291  167.1283 C.3     1  UNL1        0.0847
      2 N         141.6153  140.8234  168.6140 N.3     1  UNL1       -0.2676
      3 C         140.7776  141.7063  169.4908 C.3     1  UNL1        0.0896
      4 C         140.9837  141.7006  170.9766 C.3     1  UNL1        0.0862
      5 N         142.0275  140.8120  171.5856 N.3     1  UNL1       -0.2951
      6 C         142.8653  139.9292  170.7088 C.3     1  UNL1        0.0862
      7 C         142.6592  139.9349  169.2230 C.3     1  UNL1        0.0896
      8 H         141.5457  140.2006  172.2446 H       1  UNL1        0.1233
      9 C         138.8482  137.6713  165.1998 C.ar    1  UNL1       -0.0000
     10 C         138.2453  138.6261  166.1870 C.ar    1  UNL1       -0.0003
     11 C         139.0990  139.6788  166.8299 C.ar    1  UNL1       -0.0030
     12 C         140.5556  139.7765  166.4855 C.ar    1  UNL1       -0.0075
     13 C         141.1585  138.8217  165.4982 C.ar    1  UNL1       -0.0030
     14 C         140.3048  137.7691  164.8554 C.ar    1  UNL1       -0.0003
     15 C         142.0569  141.8874  166.2854 C.3     1  UNL1        0.0499
     16 C         141.2115  142.9077  165.5823 C.ar    1  UNL1        0.0135
     17 C         139.8788  143.2973  166.1498 C.ar    1  UNL1       -0.0012
     18 C         139.0335  144.3176  165.4466 C.ar    1  UNL1       -0.0001
     19 C         139.5209  144.9484  164.1760 C.ar    1  UNL1        0.0031
     20 C         140.8537  144.5589  163.6085 C.ar    1  UNL1        0.0366
     21 C         141.6990  143.5385  164.3116 C.ar    1  UNL1        0.1346
     22 O         143.0317  143.1490  163.7441 O.3     1  UNL1       -0.4758
     23 C         143.1064  142.1758  162.6051 C.3     1  UNL1        0.2053
     24 C         141.9930  141.1958  162.3817 C.3     1  UNL1        0.0438
     25 C         141.5224  139.8449  161.9304 C.3     1  UNL1        0.0038
     26 C         140.5349  140.8494  162.4460 C.3     1  UNL1        0.0038
@<TRIPOS>BOND
     1     9    10   ar
     2    10    11   ar
     3    11    12   ar
     4    12     1    1
     5     1    15    1
     6    15    16    1
     7    16    17   ar
     8    17    18   ar
     9    18    19   ar
    10    19    20   ar
    11    20    21   ar
    12    21    22    1
    13    22    23    1
    14    23    24    1
    15    24    25    1
    16    25    26    1
    17     1     2    1
    18     2     3    1
    19     3     4    1
    20     4     5    1
    21     5     6    1
    22     6     7    1
    23    12    13   ar
    24    13    14   ar
    25    14     9   ar
    26    21    16   ar
    27    26    24    1
    28     7     2    1
    29     5     8    1
@<TRIPOS>MOLECULE
*****
 26 29 0 0 0
SMALL
GASTEIGER

@<TRIPOS>ATOM
      1 C         140.5185  142.2577  165.1077 C.3     1  UNL1        0.0847
      2 N         139.9027  142.9123  163.9069 N.3     1  UNL1       -0.2676
      3 C         138.8852  144.0001  164.0847 C.3     1  UNL1        0.0896
      4 C         138.2694  144.6547  162.8837 C.3     1  UNL1        0.0862
      5 N         138.6711  144.2216  161.5050 N.3     1  UNL1       -0.2951
      6 C         139.6885  143.1339  161.3271 C.3     1  UNL1        0.0862
      7 C         140.3043  142.4792  162.5280 C.3     1  UNL1        0.0896
      8 H         139.0374  145.0477  161.0319 H       1  UNL1        0.1233
      9 C         138.3008  138.9992  167.2790 C.ar    1  UNL1       -0.0000
     10 C         139.3141  139.8310  168.0079 C.ar    1  UNL1       -0.0003
     11 C         140.0534  140.9171  167.2841 C.ar    1  UNL1       -0.0030
     12 C         139.7792  141.1715  165.8315 C.ar    1  UNL1       -0.0075
     13 C         138.7659  140.3398  165.1027 C.ar    1  UNL1       -0.0030
     14 C         138.0266  139.2536  165.8264 C.ar    1  UNL1       -0.0003
     15 C         141.8735  142.6892  165.5849 C.3     1  UNL1        0.0499
     16 C         143.1021  142.2675  164.8348 C.ar    1  UNL1        0.0135
     17 C         143.6979  143.1756  163.8003 C.ar    1  UNL1       -0.0012
     18 C         144.9266  142.7540  163.0503 C.ar    1  UNL1       -0.0001
     19 C         145.5594  141.4241  163.3347 C.ar    1  UNL1        0.0031
     20 C         144.9636  140.5159  164.3693 C.ar    1  UNL1        0.0366
     21 C         143.7350  140.9376  165.1193 C.ar    1  UNL1        0.1346
     22 O         143.1392  140.0294  166.1538 O.3     1  UNL1       -0.4758
     23 C         143.0491  138.5547  165.8948 C.3     1  UNL1        0.2053
     24 C         142.0427  138.0251  164.9168 C.3     1  UNL1        0.0438
     25 C         140.8185  137.2084  164.6265 C.3     1  UNL1        0.0038
     26 C         141.5237  137.9245  163.5130 C.3     1  UNL1        0.0038
@<TRIPOS>BOND
     1     9    10   ar
     2    10    11   ar
     3    11    12   ar
     4    12     1    1
     5     1    15    1
     6    15    16    1
     7    16    17   ar
     8    17    18   ar
     9    18    19   ar
    10    19    20   ar
    11    20    21   ar
    12    21    22    1
    13    22    23    1
    14    23    24    1
    15    24    25    1
    16    25    26    1
    17     1     2    1
    18     2     3    1
    19     3     4    1
    20     4     5    1
    21     5     6    1
    22     6     7    1
    23    12    13   ar
    24    13    14   ar
    25    14     9   ar
    26    21    16   ar
    27    26    24    1
    28     7     2    1
    29     5     8    1
@<TRIPOS>MOLECULE
*****
 26 29 0 0 0
SMALL
GASTEIGER

@<TRIPOS>ATOM
      1 C         141.8651  141.1789  164.5506 C.3     1  UNL1        0.0847
      2 N         143.1524  141.5134  163.8572 N.3     1  UNL1       -0.2676
      3 C         144.4565  141.0398  164.4274 C.3     1  UNL1        0.0896
      4 C         145.7439  141.3743  163.7339 C.3     1  UNL1        0.0862
      5 N         145.7271  142.1823  162.4703 N.3     1  UNL1       -0.2951
      6 C         144.4230  142.6559  161.9001 C.3     1  UNL1        0.0862
      7 C         143.1357  142.3215  162.5935 C.3     1  UNL1        0.0896
      8 H         146.1737  141.6134  161.7510 H       1  UNL1        0.1233
      9 C         138.3444  143.9624  164.2243 C.ar    1  UNL1       -0.0000
     10 C         139.4584  144.2711  165.1801 C.ar    1  UNL1       -0.0003
     11 C         140.6320  143.3432  165.2889 C.ar    1  UNL1       -0.0030
     12 C         140.6915  142.1067  164.4419 C.ar    1  UNL1       -0.0075
     13 C         139.5775  141.7981  163.4861 C.ar    1  UNL1       -0.0030
     14 C         138.4039  142.7259  163.3773 C.ar    1  UNL1       -0.0003
     15 C         141.7513  139.9166  165.3529 C.3     1  UNL1        0.0499
     16 C         141.4263  139.9843  166.8156 C.ar    1  UNL1        0.0135
     17 C         142.5310  140.0797  167.8258 C.ar    1  UNL1       -0.0012
     18 C         142.2060  140.1474  169.2886 C.ar    1  UNL1       -0.0001
     19 C         140.7762  140.1197  169.7412 C.ar    1  UNL1        0.0031
     20 C         139.6714  140.0242  168.7311 C.ar    1  UNL1        0.0366
     21 C         139.9964  139.9566  167.2683 C.ar    1  UNL1        0.1346
     22 O         138.8917  139.8612  166.2581 O.3     1  UNL1       -0.4758
     23 C         138.4816  138.5226  165.7193 C.3     1  UNL1        0.2053
     24 C         138.8758  138.1210  164.3290 C.3     1  UNL1        0.0438
     25 C         139.8648  137.5005  163.3872 C.3     1  UNL1        0.0038
     26 C         138.5698  138.0458  162.8625 C.3     1  UNL1        0.0038
@<TRIPOS>BOND
     1     9    10   ar
     2    10    11   ar
     3    11    12   ar
     4    12     1    1
     5     1    15    1
     6    15    16    1
     7    16    17   ar
     8    17    18   ar
     9    18    19   ar
    10    19    20   ar
    11    20    21   ar
    12    21    22    1
    13    22    23    1
    14    23    24    1
    15    24    25    1
    16    25    26    1
    17     1     2    1
    18     2     3    1
    19     3     4    1
    20     4     5    1
    21     5     6    1
    22     6     7    1
    23    12    13   ar
    24    13    14   ar
    25    14     9   ar
    26    21    16   ar
    27    26    24    1
    28     7     2    1
    29     5     8    1
@<TRIPOS>MOLECULE
*****
 26 29 0 0 0
SMALL
GASTEIGER

@<TRIPOS>ATOM
      1 C         141.4101  142.1233  166.0613 C.3     1  UNL1        0.0847
      2 N         140.9246  143.2492  165.1972 N.3     1  UNL1       -0.2676
      3 C         139.4710  143.6195  165.1944 C.3     1  UNL1        0.0896
      4 C         138.9855  144.7454  164.3303 C.3     1  UNL1        0.0862
      5 N         139.9536  145.5011  163.4691 N.3     1  UNL1       -0.2951
      6 C         141.4072  145.1309  163.4719 C.3     1  UNL1        0.0862
      7 C         141.8927  144.0050  164.3360 C.3     1  UNL1        0.0896
      8 H         139.8984  146.4794  163.7525 H       1  UNL1        0.1233
      9 C         142.4152  142.8755  170.3826 C.ar    1  UNL1       -0.0000
     10 C         141.0300  143.1488  169.8762 C.ar    1  UNL1       -0.0003
     11 C         140.6950  142.8981  168.4358 C.ar    1  UNL1       -0.0030
     12 C         141.7451  142.3741  167.5017 C.ar    1  UNL1       -0.0075
     13 C         143.1303  142.1007  168.0081 C.ar    1  UNL1       -0.0030
     14 C         143.4653  142.3514  169.4486 C.ar    1  UNL1       -0.0003
     15 C         141.5605  140.7467  165.4849 C.3     1  UNL1        0.0499
     16 C         140.4535  139.7457  165.6349 C.ar    1  UNL1        0.0135
     17 C         139.2214  140.1011  166.4130 C.ar    1  UNL1       -0.0012
     18 C         138.1144  139.1000  166.5630 C.ar    1  UNL1       -0.0001
     19 C         138.2396  137.7436  165.9350 C.ar    1  UNL1        0.0031
     20 C         139.4718  137.3882  165.1569 C.ar    1  UNL1        0.0366
     21 C         140.5788  138.3892  165.0069 C.ar    1  UNL1        0.1346
     22 O         141.8110  138.0339  164.2288 O.3     1  UNL1       -0.4758
     23 C         141.7341  137.8592  162.7409 C.3     1  UNL1        0.2053
     24 C         140.5378  138.3607  161.9877 C.3     1  UNL1        0.0438
     25 C         139.1963  138.1107  161.3650 C.3     1  UNL1        0.0038
     26 C         139.8073  139.4793  161.3058 C.3     1  UNL1        0.0038
@<TRIPOS>BOND
     1     9    10   ar
     2    10    11   ar
     3    11    12   ar
     4    12     1    1
     5     1    15    1
     6    15    16    1
     7    16    17   ar
     8    17    18   ar
     9    18    19   ar
    10    19    20   ar
    11    20    21   ar
    12    21    22    1
    13    22    23    1
    14    23    24    1
    15    24    25    1
    16    25    26    1
    17     1     2    1
    18     2     3    1
    19     3     4    1
    20     4     5    1
    21     5     6    1
    22     6     7    1
    23    12    13   ar
    24    13    14   ar
    25    14     9   ar
    26    21    16   ar
    27    26    24    1
    28     7     2    1
    29     5     8    1
