@<TRIPOS>MOLECULE
*****
 22 25 0 0 0
SMALL
GASTEIGER

@<TRIPOS>ATOM
      1 C         144.1110  139.9826  164.3343 C.3     1  UNL1        0.0899
      2 N         142.7090  139.5514  164.6483 N.3     1  UNL1       -0.2685
      3 C         141.9407  138.7225  163.6620 C.3     1  UNL1        0.0771
      4 C         140.5387  138.2914  163.9759 C.3     1  UNL1        0.0434
      5 C         139.9050  138.6891  165.2761 C.ar    1  UNL1       -0.0235
      6 C         138.5030  138.2580  165.5899 C.ar    1  UNL1       -0.0045
      7 C         137.8694  138.6557  166.8900 C.ar    1  UNL1       -0.0003
      8 C         138.6377  139.4846  167.8762 C.ar    1  UNL1       -0.0002
      9 C         140.0397  139.9157  167.5623 C.ar    1  UNL1       -0.0003
     10 C         140.6733  139.5180  166.2623 C.ar    1  UNL1       -0.0113
     11 C         142.0753  139.9492  165.9483 C.3     1  UNL1        0.0842
     12 C         142.8437  140.7780  166.9346 C.3     1  UNL1        0.0469
     13 C         142.2099  141.1758  168.2347 C.ar    1  UNL1       -0.0174
     14 C         142.9783  142.0047  169.2209 C.ar    1  UNL1       -0.0009
     15 C         142.3446  142.4024  170.5210 C.ar    1  UNL1        0.0394
     16 C         140.9427  141.9713  170.8349 C.ar    1  UNL1        0.1674
     17 O         140.3089  142.3690  172.1350 O.3     1  UNL1       -0.5029
     18 C         140.1743  141.1424  169.8486 C.ar    1  UNL1        0.1671
     19 O         138.7723  140.7112  170.1626 O.3     1  UNL1       -0.5029
     20 C         140.8080  140.7446  168.5486 C.ar    1  UNL1        0.0326
     21 H         140.7889  142.8868  172.7511 H       1  UNL1        0.2923
     22 H         138.3765  140.9597  170.9747 H       1  UNL1        0.2923
@<TRIPOS>BOND
     1     1     2    1
     2     2     3    1
     3     3     4    1
     4     4     5    1
     5     5     6   ar
     6     6     7   ar
     7     7     8   ar
     8     8     9   ar
     9     9    10   ar
    10    10    11    1
    11    11    12    1
    12    12    13    1
    13    13    14   ar
    14    14    15   ar
    15    15    16   ar
    16    16    17    1
    17    16    18   ar
    18    18    19    1
    19    18    20   ar
    20    11     2    1
    21    20    13   ar
    22    10     5   ar
    23    20     9    1
    24    17    21    1
    25    19    22    1
@<TRIPOS>MOLECULE
*****
 22 25 0 0 0
SMALL
GASTEIGER

@<TRIPOS>ATOM
      1 C         142.9909  142.0066  168.7038 C.3     1  UNL1        0.0899
      2 N         141.7828  141.2115  168.3056 N.3     1  UNL1       -0.2685
      3 C         140.5687  141.2001  169.1865 C.3     1  UNL1        0.0771
      4 C         139.3607  140.4051  168.7884 C.3     1  UNL1        0.0434
      5 C         139.3667  139.6214  167.5093 C.ar    1  UNL1       -0.0235
      6 C         138.1586  138.8264  167.1111 C.ar    1  UNL1       -0.0045
      7 C         138.1647  138.0429  165.8321 C.ar    1  UNL1       -0.0003
      8 C         139.3787  138.0543  164.9512 C.ar    1  UNL1       -0.0002
      9 C         140.5867  138.8493  165.3494 C.ar    1  UNL1       -0.0003
     10 C         140.5807  139.6329  166.6284 C.ar    1  UNL1       -0.0113
     11 C         141.7888  140.4280  167.0266 C.3     1  UNL1        0.0842
     12 C         143.0028  140.4394  166.1457 C.3     1  UNL1        0.0469
     13 C         143.0088  139.6558  164.8666 C.ar    1  UNL1       -0.0174
     14 C         144.2229  139.6673  163.9857 C.ar    1  UNL1       -0.0009
     15 C         144.2289  138.8837  162.7067 C.ar    1  UNL1        0.0394
     16 C         143.0208  138.0887  162.3086 C.ar    1  UNL1        0.1674
     17 O         143.0268  137.3051  161.0295 O.3     1  UNL1       -0.5029
     18 C         141.8068  138.0772  163.1895 C.ar    1  UNL1        0.1671
     19 O         140.5987  137.2822  162.7913 O.3     1  UNL1       -0.5029
     20 C         141.8008  138.8608  164.4685 C.ar    1  UNL1        0.0326
     21 H         143.7852  137.3122  160.4792 H       1  UNL1        0.2923
     22 H         140.6025  136.7927  161.9923 H       1  UNL1        0.2923
@<TRIPOS>BOND
     1     1     2    1
     2     2     3    1
     3     3     4    1
     4     4     5    1
     5     5     6   ar
     6     6     7   ar
     7     7     8   ar
     8     8     9   ar
     9     9    10   ar
    10    10    11    1
    11    11    12    1
    12    12    13    1
    13    13    14   ar
    14    14    15   ar
    15    15    16   ar
    16    16    17    1
    17    16    18   ar
    18    18    19    1
    19    18    20   ar
    20    11     2    1
    21    20    13   ar
    22    10     5   ar
    23    20     9    1
    24    17    21    1
    25    19    22    1
@<TRIPOS>MOLECULE
*****
 22 25 0 0 0
SMALL
GASTEIGER

@<TRIPOS>ATOM
      1 C         139.5049  143.8160  164.2114 C.3     1  UNL1        0.0899
      2 N         140.3604  142.5860  164.2852 N.3     1  UNL1       -0.2685
      3 C         140.7631  141.8759  163.0268 C.3     1  UNL1        0.0771
      4 C         141.6185  140.6460  163.1005 C.3     1  UNL1        0.0434
      5 C         142.0714  140.1262  164.4327 C.ar    1  UNL1       -0.0235
      6 C         142.9269  138.8963  164.5064 C.ar    1  UNL1       -0.0045
      7 C         143.3797  138.3765  165.8386 C.ar    1  UNL1       -0.0003
      8 C         142.9771  139.0866  167.0970 C.ar    1  UNL1       -0.0002
      9 C         142.1216  140.3165  167.0233 C.ar    1  UNL1       -0.0003
     10 C         141.6688  140.8363  165.6911 C.ar    1  UNL1       -0.0113
     11 C         140.8133  142.0662  165.6174 C.3     1  UNL1        0.0842
     12 C         140.4106  142.7763  166.8758 C.3     1  UNL1        0.0469
     13 C         140.8635  142.2564  168.2080 C.ar    1  UNL1       -0.0174
     14 C         140.4609  142.9665  169.4664 C.ar    1  UNL1       -0.0009
     15 C         140.9138  142.4467  170.7986 C.ar    1  UNL1        0.0394
     16 C         141.7692  141.2168  170.8723 C.ar    1  UNL1        0.1674
     17 O         142.2221  140.6970  172.2045 O.3     1  UNL1       -0.5029
     18 C         142.1719  140.5068  169.6139 C.ar    1  UNL1        0.1671
     19 O         143.0274  139.2768  169.6876 O.3     1  UNL1       -0.5029
     20 C         141.7190  141.0266  168.2817 C.ar    1  UNL1        0.0326
     21 H         141.9706  141.1405  172.9906 H       1  UNL1        0.2923
     22 H         143.3103  138.9521  170.5198 H       1  UNL1        0.2923
@<TRIPOS>BOND
     1     1     2    1
     2     2     3    1
     3     3     4    1
     4     4     5    1
     5     5     6   ar
     6     6     7   ar
     7     7     8   ar
     8     8     9   ar
     9     9    10   ar
    10    10    11    1
    11    11    12    1
    12    12    13    1
    13    13    14   ar
    14    14    15   ar
    15    15    16   ar
    16    16    17    1
    17    16    18   ar
    18    18    19    1
    19    18    20   ar
    20    11     2    1
    21    20    13   ar
    22    10     5   ar
    23    20     9    1
    24    17    21    1
    25    19    22    1
@<TRIPOS>MOLECULE
*****
 22 25 0 0 0
SMALL
GASTEIGER

@<TRIPOS>ATOM
      1 C         138.5993  138.7552  164.5952 C.3     1  UNL1        0.0899
      2 N         139.8067  139.6394  164.4935 N.3     1  UNL1       -0.2685
      3 C         140.4071  139.9376  163.1517 C.3     1  UNL1        0.0771
      4 C         141.6145  140.8218  163.0500 C.3     1  UNL1        0.0434
      5 C         142.2215  141.4079  164.2902 C.ar    1  UNL1       -0.0235
      6 C         143.4289  142.2921  164.1885 C.ar    1  UNL1       -0.0045
      7 C         144.0358  142.8782  165.4286 C.ar    1  UNL1       -0.0003
      8 C         143.4354  142.5801  166.7705 C.ar    1  UNL1       -0.0002
      9 C         142.2281  141.6958  166.8722 C.ar    1  UNL1       -0.0003
     10 C         141.6211  141.1098  165.6321 C.ar    1  UNL1       -0.0113
     11 C         140.4137  140.2255  165.7337 C.3     1  UNL1        0.0842
     12 C         139.8132  139.9274  167.0756 C.3     1  UNL1        0.0469
     13 C         140.4203  140.5135  168.3158 C.ar    1  UNL1       -0.0174
     14 C         139.8199  140.2154  169.6577 C.ar    1  UNL1       -0.0009
     15 C         140.4268  140.8015  170.8978 C.ar    1  UNL1        0.0394
     16 C         141.6342  141.6857  170.7961 C.ar    1  UNL1        0.1674
     17 O         142.2412  142.2718  172.0363 O.3     1  UNL1       -0.5029
     18 C         142.2346  141.9838  169.4543 C.ar    1  UNL1        0.1671
     19 O         143.4421  142.8681  169.3526 O.3     1  UNL1       -0.5029
     20 C         141.6276  141.3977  168.2141 C.ar    1  UNL1        0.0326
     21 H         141.8662  142.0856  172.8746 H       1  UNL1        0.2923
     22 H         143.8212  143.2342  170.1273 H       1  UNL1        0.2923
@<TRIPOS>BOND
     1     1     2    1
     2     2     3    1
     3     3     4    1
     4     4     5    1
     5     5     6   ar
     6     6     7   ar
     7     7     8   ar
     8     8     9   ar
     9     9    10   ar
    10    10    11    1
    11    11    12    1
    12    12    13    1
    13    13    14   ar
    14    14    15   ar
    15    15    16   ar
    16    16    17    1
    17    16    18   ar
    18    18    19    1
    19    18    20   ar
    20    11     2    1
    21    20    13   ar
    22    10     5   ar
    23    20     9    1
    24    17    21    1
    25    19    22    1
@<TRIPOS>MOLECULE
*****
 22 25 0 0 0
SMALL
GASTEIGER

@<TRIPOS>ATOM
      1 C         145.2769  141.0891  163.8982 C.3     1  UNL1        0.0899
      2 N         144.0915  140.1744  163.8081 N.3     1  UNL1       -0.2685
      3 C         143.9612  139.2272  162.6523 C.3     1  UNL1        0.0771
      4 C         142.7758  138.3126  162.5622 C.3     1  UNL1        0.0434
      5 C         141.7206  138.3451  163.6278 C.ar    1  UNL1       -0.0235
      6 C         140.5352  137.4304  163.5377 C.ar    1  UNL1       -0.0045
      7 C         139.4801  137.4629  164.6034 C.ar    1  UNL1       -0.0003
      8 C         139.6104  138.4101  165.7591 C.ar    1  UNL1       -0.0002
      9 C         140.7958  139.3248  165.8493 C.ar    1  UNL1       -0.0003
     10 C         141.8509  139.2923  164.7836 C.ar    1  UNL1       -0.0113
     11 C         143.0364  140.2070  164.8737 C.3     1  UNL1        0.0842
     12 C         143.1667  141.1542  166.0295 C.3     1  UNL1        0.0469
     13 C         142.1115  141.1867  167.0952 C.ar    1  UNL1       -0.0174
     14 C         142.2418  142.1339  168.2510 C.ar    1  UNL1       -0.0009
     15 C         141.1867  142.1664  169.3166 C.ar    1  UNL1        0.0394
     16 C         140.0013  141.2517  169.2265 C.ar    1  UNL1        0.1674
     17 O         138.9461  141.2842  170.2922 O.3     1  UNL1       -0.5029
     18 C         139.8710  140.3045  168.0707 C.ar    1  UNL1        0.1671
     19 O         138.6855  139.3898  167.9806 O.3     1  UNL1       -0.5029
     20 C         140.9261  140.2720  167.0051 C.ar    1  UNL1        0.0326
     21 H         139.0275  141.8759  171.0142 H       1  UNL1        0.2923
     22 H         138.0264  139.4102  168.6463 H       1  UNL1        0.2923
@<TRIPOS>BOND
     1     1     2    1
     2     2     3    1
     3     3     4    1
     4     4     5    1
     5     5     6   ar
     6     6     7   ar
     7     7     8   ar
     8     8     9   ar
     9     9    10   ar
    10    10    11    1
    11    11    12    1
    12    12    13    1
    13    13    14   ar
    14    14    15   ar
    15    15    16   ar
    16    16    17    1
    17    16    18   ar
    18    18    19    1
    19    18    20   ar
    20    11     2    1
    21    20    13   ar
    22    10     5   ar
    23    20     9    1
    24    17    21    1
    25    19    22    1
@<TRIPOS>MOLECULE
*****
 22 25 0 0 0
SMALL
GASTEIGER

@<TRIPOS>ATOM
      1 C         141.6701  142.8173  169.4273 C.3     1  UNL1        0.0899
      2 N         141.8120  141.6941  168.4432 N.3     1  UNL1       -0.2685
      3 C         142.6416  140.4934  168.7900 C.3     1  UNL1        0.0771
      4 C         142.7836  139.3703  167.8059 C.3     1  UNL1        0.0434
      5 C         142.0959  139.4478  166.4750 C.ar    1  UNL1       -0.0235
      6 C         142.2379  138.3247  165.4909 C.ar    1  UNL1       -0.0045
      7 C         141.5503  138.4022  164.1601 C.ar    1  UNL1       -0.0003
      8 C         140.7207  139.6029  163.8134 C.ar    1  UNL1       -0.0002
      9 C         140.5787  140.7260  164.7974 C.ar    1  UNL1       -0.0003
     10 C         141.2664  140.6485  166.1282 C.ar    1  UNL1       -0.0113
     11 C         141.1244  141.7716  167.1124 C.3     1  UNL1        0.0842
     12 C         140.2948  142.9723  166.7656 C.3     1  UNL1        0.0469
     13 C         139.6072  143.0498  165.4347 C.ar    1  UNL1       -0.0174
     14 C         138.7776  144.2504  165.0880 C.ar    1  UNL1       -0.0009
     15 C         138.0900  144.3280  163.7571 C.ar    1  UNL1        0.0394
     16 C         138.2320  143.2049  162.7731 C.ar    1  UNL1        0.1674
     17 O         137.5443  143.2823  161.4422 O.3     1  UNL1       -0.5029
     18 C         139.0615  142.0042  163.1199 C.ar    1  UNL1        0.1671
     19 O         139.2035  140.8810  162.1357 O.3     1  UNL1       -0.5029
     20 C         139.7492  141.9267  164.4507 C.ar    1  UNL1        0.0326
     21 H         137.0261  144.0323  161.2256 H       1  UNL1        0.2923
     22 H         138.7739  140.9295  161.3044 H       1  UNL1        0.2923
@<TRIPOS>BOND
     1     1     2    1
     2     2     3    1
     3     3     4    1
     4     4     5    1
     5     5     6   ar
     6     6     7   ar
     7     7     8   ar
     8     8     9   ar
     9     9    10   ar
    10    10    11    1
    11    11    12    1
    12    12    13    1
    13    13    14   ar
    14    14    15   ar
    15    15    16   ar
    16    16    17    1
    17    16    18   ar
    18    18    19    1
    19    18    20   ar
    20    11     2    1
    21    20    13   ar
    22    10     5   ar
    23    20     9    1
    24    17    21    1
    25    19    22    1
@<TRIPOS>MOLECULE
*****
 22 25 0 0 0
SMALL
GASTEIGER

@<TRIPOS>ATOM
      1 C         139.9227  138.4549  165.4533 C.3     1  UNL1        0.0899
      2 N         141.2452  139.0729  165.1078 N.3     1  UNL1       -0.2685
      3 C         142.5123  138.2972  165.3143 C.3     1  UNL1        0.0771
      4 C         143.8347  138.9152  164.9688 C.3     1  UNL1        0.0434
      5 C         143.8900  140.3088  164.4168 C.ar    1  UNL1       -0.0235
      6 C         145.2124  140.9268  164.0714 C.ar    1  UNL1       -0.0045
      7 C         145.2677  142.3204  163.5194 C.ar    1  UNL1       -0.0003
      8 C         144.0005  143.0961  163.3128 C.ar    1  UNL1       -0.0002
      9 C         142.6781  142.4781  163.6583 C.ar    1  UNL1       -0.0003
     10 C         142.6229  141.0845  164.2103 C.ar    1  UNL1       -0.0113
     11 C         141.3004  140.4665  164.5558 C.3     1  UNL1        0.0842
     12 C         140.0333  141.2422  164.3492 C.3     1  UNL1        0.0469
     13 C         140.0886  142.6359  163.7972 C.ar    1  UNL1       -0.0174
     14 C         138.8215  143.4116  163.5907 C.ar    1  UNL1       -0.0009
     15 C         138.8767  144.8052  163.0387 C.ar    1  UNL1        0.0394
     16 C         140.1991  145.4231  162.6932 C.ar    1  UNL1        0.1674
     17 O         140.2544  146.8168  162.1412 O.3     1  UNL1       -0.5029
     18 C         141.4662  144.6474  162.8998 C.ar    1  UNL1        0.1671
     19 O         142.7887  145.2654  162.5543 O.3     1  UNL1       -0.5029
     20 C         141.4110  143.2538  163.4518 C.ar    1  UNL1        0.0326
     21 H         139.4629  147.3014  162.0122 H       1  UNL1        0.2923
     22 H         142.8232  146.1360  162.2094 H       1  UNL1        0.2923
@<TRIPOS>BOND
     1     1     2    1
     2     2     3    1
     3     3     4    1
     4     4     5    1
     5     5     6   ar
     6     6     7   ar
     7     7     8   ar
     8     8     9   ar
     9     9    10   ar
    10    10    11    1
    11    11    12    1
    12    12    13    1
    13    13    14   ar
    14    14    15   ar
    15    15    16   ar
    16    16    17    1
    17    16    18   ar
    18    18    19    1
    19    18    20   ar
    20    11     2    1
    21    20    13   ar
    22    10     5   ar
    23    20     9    1
    24    17    21    1
    25    19    22    1
@<TRIPOS>MOLECULE
*****
 22 25 0 0 0
SMALL
GASTEIGER

@<TRIPOS>ATOM
      1 C         144.8801  142.9047  163.1334 C.3     1  UNL1        0.0899
      2 N         143.5001  143.4036  163.4447 N.3     1  UNL1       -0.2685
      3 C         143.1972  144.8705  163.3647 C.3     1  UNL1        0.0771
      4 C         141.8173  145.3694  163.6760 C.3     1  UNL1        0.0434
      5 C         140.7403  144.4014  164.0674 C.ar    1  UNL1       -0.0235
      6 C         139.3604  144.9004  164.3788 C.ar    1  UNL1       -0.0045
      7 C         138.2835  143.9324  164.7702 C.ar    1  UNL1       -0.0003
      8 C         138.5865  142.4655  164.8502 C.ar    1  UNL1       -0.0002
      9 C         139.9663  141.9666  164.5389 C.ar    1  UNL1       -0.0003
     10 C         141.0432  142.9345  164.1475 C.ar    1  UNL1       -0.0113
     11 C         142.4232  142.4356  163.8361 C.3     1  UNL1        0.0842
     12 C         142.7262  140.9687  163.9162 C.3     1  UNL1        0.0469
     13 C         141.6492  140.0007  164.3076 C.ar    1  UNL1       -0.0174
     14 C         141.9521  138.5338  164.3877 C.ar    1  UNL1       -0.0009
     15 C         140.8752  137.5658  164.7791 C.ar    1  UNL1        0.0394
     16 C         139.4953  138.0648  165.0904 C.ar    1  UNL1        0.1674
     17 O         138.4183  137.0968  165.4818 O.3     1  UNL1       -0.5029
     18 C         139.1924  139.5317  165.0103 C.ar    1  UNL1        0.1671
     19 O         137.8124  140.0306  165.3217 O.3     1  UNL1       -0.5029
     20 C         140.2693  140.4996  164.6189 C.ar    1  UNL1        0.0326
     21 H         138.6075  136.1805  165.5318 H       1  UNL1        0.2923
     22 H         137.1397  139.4259  165.5662 H       1  UNL1        0.2923
@<TRIPOS>BOND
     1     1     2    1
     2     2     3    1
     3     3     4    1
     4     4     5    1
     5     5     6   ar
     6     6     7   ar
     7     7     8   ar
     8     8     9   ar
     9     9    10   ar
    10    10    11    1
    11    11    12    1
    12    12    13    1
    13    13    14   ar
    14    14    15   ar
    15    15    16   ar
    16    16    17    1
    17    16    18   ar
    18    18    19    1
    19    18    20   ar
    20    11     2    1
    21    20    13   ar
    22    10     5   ar
    23    20     9    1
    24    17    21    1
    25    19    22    1
@<TRIPOS>MOLECULE
*****
 22 25 0 0 0
SMALL
GASTEIGER

@<TRIPOS>ATOM
      1 C         138.9791  139.5667  167.0305 C.3     1  UNL1        0.0899
      2 N         140.2622  140.2984  166.7689 N.3     1  UNL1       -0.2685
      3 C         141.5275  139.8585  167.4439 C.3     1  UNL1        0.0771
      4 C         142.8105  140.5901  167.1824 C.3     1  UNL1        0.0434
      5 C         142.8284  141.7617  166.2458 C.ar    1  UNL1       -0.0235
      6 C         144.1115  142.4933  165.9843 C.ar    1  UNL1       -0.0045
      7 C         144.1293  143.6649  165.0478 C.ar    1  UNL1       -0.0003
      8 C         142.8640  144.1048  164.3727 C.ar    1  UNL1       -0.0002
      9 C         141.5810  143.3732  164.6343 C.ar    1  UNL1       -0.0003
     10 C         141.5631  142.2016  165.5708 C.ar    1  UNL1       -0.0113
     11 C         140.2800  141.4699  165.8324 C.3     1  UNL1        0.0842
     12 C         139.0148  141.9098  165.1574 C.3     1  UNL1        0.0469
     13 C         139.0327  143.0815  164.2208 C.ar    1  UNL1       -0.0174
     14 C         137.7674  143.5214  163.5458 C.ar    1  UNL1       -0.0009
     15 C         137.7852  144.6929  162.6093 C.ar    1  UNL1        0.0394
     16 C         139.0683  145.4245  162.3477 C.ar    1  UNL1        0.1674
     17 O         139.0862  146.5961  161.4112 O.3     1  UNL1       -0.5029
     18 C         140.3335  144.9846  163.0227 C.ar    1  UNL1        0.1671
     19 O         141.6166  145.7163  162.7612 O.3     1  UNL1       -0.5029
     20 C         140.3157  143.8131  163.9593 C.ar    1  UNL1        0.0326
     21 H         138.2958  146.8710  160.9895 H       1  UNL1        0.2923
     22 H         141.6278  146.4481  162.1761 H       1  UNL1        0.2923
@<TRIPOS>BOND
     1     1     2    1
     2     2     3    1
     3     3     4    1
     4     4     5    1
     5     5     6   ar
     6     6     7   ar
     7     7     8   ar
     8     8     9   ar
     9     9    10   ar
    10    10    11    1
    11    11    12    1
    12    12    13    1
    13    13    14   ar
    14    14    15   ar
    15    15    16   ar
    16    16    17    1
    17    16    18   ar
    18    18    19    1
    19    18    20   ar
    20    11     2    1
    21    20    13   ar
    22    10     5   ar
    23    20     9    1
    24    17    21    1
    25    19    22    1
