@<TRIPOS>MOLECULE
*****
 34 38 0 0 0
SMALL
GASTEIGER

@<TRIPOS>ATOM
      1 C         142.1501  139.6284  167.3639 C.ar    1  UNL1        0.0536
      2 C         140.7217  139.6140  166.9062 C.ar    1  UNL1        0.0049
      3 C         140.4003  139.3889  165.4585 C.ar    1  UNL1        0.0325
      4 C         141.5072  139.1780  164.4684 C.ar    1  UNL1        0.1475
      5 O         141.1857  138.9529  163.0207 O.2     1  UNL1       -0.4400
      6 C         142.2926  138.7421  162.0306 C.ar    1  UNL1        0.2024
      7 C         143.7211  138.7564  162.4883 C.ar    1  UNL1        0.0955
      8 C         144.0425  138.9816  163.9360 C.ar    1  UNL1        0.2030
      9 O         145.4709  138.9959  164.3937 O.2     1  UNL1       -0.2863
     10 C         142.9355  139.1924  164.9261 C.ar    1  UNL1        0.0735
     11 C         143.2570  139.4176  166.3739 C.ar    1  UNL1        0.0107
     12 N         141.9711  138.5169  160.5829 N.pl3   1  UNL1       -0.2742
     13 C         140.6313  138.9184  160.0409 C.3     1  UNL1        0.1257
     14 C         140.3098  138.6933  158.5931 C.3     1  UNL1        0.1637
     15 O         141.3282  138.0666  157.6874 O.3     1  UNL1       -0.3501
     16 C         142.6679  137.6651  158.2294 C.3     1  UNL1        0.1637
     17 C         142.9894  137.8902  159.6772 C.3     1  UNL1        0.1257
     18 C         142.6905  141.4558  170.8451 C.3     1  UNL1        0.1152
     19 N         142.3691  141.2306  169.3973 N.am    1  UNL1       -0.2726
     20 C         141.9451  142.3827  168.5352 C.3     1  UNL1        0.1152
     21 C         142.4716  139.8535  168.8117 C.2     1  UNL1        0.2491
     22 O         142.8955  138.7016  169.6738 O.2     1  UNL1       -0.2699
     23 C         138.9718  139.3745  165.0008 C.3     1  UNL1        0.1209
     24 N         138.5076  140.3508  163.9611 N.pl3   1  UNL1       -0.2977
     25 C         137.9143  139.8530  162.6765 C.3     1  UNL1        0.1388
     26 C         137.4500  140.8294  161.6367 C.3     1  UNL1        0.2269
     27 O         137.5790  142.3036  161.8815 O.3     1  UNL1       -0.4701
     28 C         138.1723  142.8015  163.1660 C.ar    1  UNL1        0.1790
     29 C         138.3013  144.2757  163.4108 C.ar    1  UNL1        0.1751
     30 F         137.8371  145.2521  162.3710 F       1  UNL1       -0.2009
     31 C         138.8946  144.7736  164.6954 C.ar    1  UNL1        0.0329
     32 C         139.3589  143.7973  165.7352 C.ar    1  UNL1        0.0038
     33 C         139.2298  142.3231  165.4904 C.ar    1  UNL1        0.0178
     34 C         138.6366  141.8252  164.2058 C.ar    1  UNL1        0.0849
@<TRIPOS>BOND
     1    18    19    1
     2    19    20    1
     3    19    21   am
     4    21    22    2
     5    21     1    1
     6     1     2   ar
     7     2     3   ar
     8     3    23    1
     9    23    24    1
    10    24    25    1
    11    25    26    1
    12    26    27    1
    13    27    28    1
    14    28    29   ar
    15    29    30    1
    16    29    31   ar
    17    31    32   ar
    18    32    33   ar
    19    33    34   ar
    20     3     4   ar
    21     4     5   ar
    22     5     6   ar
    23     6    12    1
    24    12    13    1
    25    13    14    1
    26    14    15    1
    27    15    16    1
    28    16    17    1
    29     6     7   ar
    30     7     8   ar
    31     8     9    2
    32     8    10   ar
    33    10    11   ar
    34    11     1   ar
    35    34    24    1
    36    10     4   ar
    37    34    28   ar
    38    17    12    1
@<TRIPOS>MOLECULE
*****
 34 38 0 0 0
SMALL
GASTEIGER

@<TRIPOS>ATOM
      1 C         142.2673  142.2787  167.5293 C.ar    1  UNL1        0.0536
      2 C         140.8548  142.4250  167.0463 C.ar    1  UNL1        0.0049
      3 C         140.5849  142.7848  165.6153 C.ar    1  UNL1        0.0325
      4 C         141.7275  142.9984  164.6673 C.ar    1  UNL1        0.1475
      5 O         141.4576  143.3582  163.2364 O.2     1  UNL1       -0.4400
      6 C         142.6003  143.5718  162.2884 C.ar    1  UNL1        0.2024
      7 C         144.0129  143.4255  162.7714 C.ar    1  UNL1        0.0955
      8 C         144.2828  143.0657  164.2023 C.ar    1  UNL1        0.2030
      9 O         145.6953  142.9194  164.6853 O.2     1  UNL1       -0.2863
     10 C         143.1400  142.8521  165.1503 C.ar    1  UNL1        0.0735
     11 C         143.4099  142.4923  166.5813 C.ar    1  UNL1        0.0107
     12 N         142.3304  143.9317  160.8574 N.pl3   1  UNL1       -0.2742
     13 C         141.2817  144.9516  160.5255 C.3     1  UNL1        0.1257
     14 C         141.0118  145.3114  159.0945 C.3     1  UNL1        0.1637
     15 O         141.7906  144.6513  157.9955 O.3     1  UNL1       -0.3501
     16 C         142.8393  143.6315  158.3274 C.3     1  UNL1        0.1637
     17 C         143.1091  143.2716  159.7584 C.3     1  UNL1        0.1257
     18 C         142.9739  140.1212  170.7844 C.3     1  UNL1        0.1152
     19 N         142.7040  140.4810  169.3534 N.am    1  UNL1       -0.2726
     20 C         142.6009  139.4029  168.3156 C.3     1  UNL1        0.1152
     21 C         142.5372  141.9189  168.9603 C.2     1  UNL1        0.2491
     22 O         142.6403  142.9970  169.9981 O.2     1  UNL1       -0.2699
     23 C         139.1723  142.9311  165.1323 C.3     1  UNL1        0.1209
     24 N         138.7251  142.2135  163.8934 N.pl3   1  UNL1       -0.2977
     25 C         138.2639  142.9951  162.6991 C.3     1  UNL1        0.1388
     26 C         137.8168  142.2774  161.4601 C.3     1  UNL1        0.2269
     27 O         137.8309  140.7782  161.4154 O.3     1  UNL1       -0.4701
     28 C         138.2921  139.9966  162.6097 C.ar    1  UNL1        0.1790
     29 C         138.3062  138.4973  162.5650 C.ar    1  UNL1        0.1751
     30 F         137.8591  137.7796  161.3260 F       1  UNL1       -0.2009
     31 C         138.7674  137.7157  163.7593 C.ar    1  UNL1        0.0329
     32 C         139.2145  138.4333  164.9983 C.ar    1  UNL1        0.0038
     33 C         139.2004  139.9326  165.0430 C.ar    1  UNL1        0.0178
     34 C         138.7392  140.7142  163.8487 C.ar    1  UNL1        0.0849
@<TRIPOS>BOND
     1    18    19    1
     2    19    20    1
     3    19    21   am
     4    21    22    2
     5    21     1    1
     6     1     2   ar
     7     2     3   ar
     8     3    23    1
     9    23    24    1
    10    24    25    1
    11    25    26    1
    12    26    27    1
    13    27    28    1
    14    28    29   ar
    15    29    30    1
    16    29    31   ar
    17    31    32   ar
    18    32    33   ar
    19    33    34   ar
    20     3     4   ar
    21     4     5   ar
    22     5     6   ar
    23     6    12    1
    24    12    13    1
    25    13    14    1
    26    14    15    1
    27    15    16    1
    28    16    17    1
    29     6     7   ar
    30     7     8   ar
    31     8     9    2
    32     8    10   ar
    33    10    11   ar
    34    11     1   ar
    35    34    24    1
    36    10     4   ar
    37    34    28   ar
    38    17    12    1
@<TRIPOS>MOLECULE
*****
 34 38 0 0 0
SMALL
GASTEIGER

@<TRIPOS>ATOM
      1 C         140.6768  142.1608  167.1657 C.ar    1  UNL1        0.0536
      2 C         141.4675  142.9337  166.1521 C.ar    1  UNL1        0.0049
      3 C         141.3042  142.6395  164.6903 C.ar    1  UNL1        0.0325
      4 C         140.3501  141.5723  164.2421 C.ar    1  UNL1        0.1475
      5 O         140.1868  141.2780  162.7804 O.2     1  UNL1       -0.4400
      6 C         139.2328  140.2109  162.3322 C.ar    1  UNL1        0.2024
      7 C         138.4420  139.4379  163.3458 C.ar    1  UNL1        0.0955
      8 C         138.6053  139.7321  164.8075 C.ar    1  UNL1        0.2030
      9 O         137.8146  138.9592  165.8211 O.2     1  UNL1       -0.2863
     10 C         139.5594  140.7994  165.2557 C.ar    1  UNL1        0.0735
     11 C         139.7228  141.0936  166.7175 C.ar    1  UNL1        0.0107
     12 N         139.0695  139.9166  160.8704 N.pl3   1  UNL1       -0.2742
     13 C         139.8410  138.7951  160.2404 C.3     1  UNL1        0.1257
     14 C         139.6777  138.5008  158.7786 C.3     1  UNL1        0.1637
     15 O         138.7428  139.3281  157.9469 O.3     1  UNL1       -0.3501
     16 C         137.9713  140.4496  158.5770 C.3     1  UNL1        0.1637
     17 C         138.1346  140.7438  160.0387 C.3     1  UNL1        0.1257
     18 C         141.9358  141.9200  170.9215 C.3     1  UNL1        0.1152
     19 N         141.7725  141.6258  169.4598 N.am    1  UNL1       -0.2726
     20 C         142.5416  140.5022  168.8304 C.3     1  UNL1        0.1152
     21 C         140.8401  142.4551  168.6274 C.2     1  UNL1        0.2491
     22 O         140.0711  143.5786  169.2568 O.2     1  UNL1       -0.2699
     23 C         142.0949  143.4124  163.6768 C.3     1  UNL1        0.1209
     24 N         141.3869  144.2426  162.6475 N.pl3   1  UNL1       -0.2977
     25 C         140.2784  145.1648  163.0608 C.3     1  UNL1        0.1388
     26 C         139.5703  145.9950  162.0315 C.3     1  UNL1        0.2269
     27 O         139.9707  145.9030  160.5889 O.3     1  UNL1       -0.4701
     28 C         141.0793  144.9809  160.1756 C.ar    1  UNL1        0.1790
     29 C         141.4797  144.8889  158.7330 C.ar    1  UNL1        0.1751
     30 F         140.7716  145.7191  157.7036 F       1  UNL1       -0.2009
     31 C         142.5882  143.9667  158.3196 C.ar    1  UNL1        0.0329
     32 C         143.2963  143.1366  159.3489 C.ar    1  UNL1        0.0038
     33 C         142.8958  143.2285  160.7915 C.ar    1  UNL1        0.0178
     34 C         141.7873  144.1507  161.2048 C.ar    1  UNL1        0.0849
@<TRIPOS>BOND
     1    18    19    1
     2    19    20    1
     3    19    21   am
     4    21    22    2
     5    21     1    1
     6     1     2   ar
     7     2     3   ar
     8     3    23    1
     9    23    24    1
    10    24    25    1
    11    25    26    1
    12    26    27    1
    13    27    28    1
    14    28    29   ar
    15    29    30    1
    16    29    31   ar
    17    31    32   ar
    18    32    33   ar
    19    33    34   ar
    20     3     4   ar
    21     4     5   ar
    22     5     6   ar
    23     6    12    1
    24    12    13    1
    25    13    14    1
    26    14    15    1
    27    15    16    1
    28    16    17    1
    29     6     7   ar
    30     7     8   ar
    31     8     9    2
    32     8    10   ar
    33    10    11   ar
    34    11     1   ar
    35    34    24    1
    36    10     4   ar
    37    34    28   ar
    38    17    12    1
@<TRIPOS>MOLECULE
*****
 34 38 0 0 0
SMALL
GASTEIGER

@<TRIPOS>ATOM
      1 C         140.0862  141.3848  167.7392 C.ar    1  UNL1        0.0536
      2 C         140.4412  142.6767  167.0649 C.ar    1  UNL1        0.0049
      3 C         140.2502  142.8274  165.5847 C.ar    1  UNL1        0.0325
      4 C         139.7041  141.6861  164.7790 C.ar    1  UNL1        0.1475
      5 O         139.5130  141.8368  163.2988 O.2     1  UNL1       -0.4400
      6 C         138.9669  140.6955  162.4931 C.ar    1  UNL1        0.2024
      7 C         138.6118  139.4035  163.1675 C.ar    1  UNL1        0.0955
      8 C         138.8029  139.2528  164.6476 C.ar    1  UNL1        0.2030
      9 O         138.4478  137.9609  165.3220 O.2     1  UNL1       -0.2863
     10 C         139.3490  140.3942  165.4534 C.ar    1  UNL1        0.0735
     11 C         139.5401  140.2435  166.9335 C.ar    1  UNL1        0.0107
     12 N         138.7759  140.8462  161.0130 N.pl3   1  UNL1       -0.2742
     13 C         138.8496  139.6425  160.1209 C.3     1  UNL1        0.1257
     14 C         138.6586  139.7931  158.6407 C.3     1  UNL1        0.1637
     15 O         138.3938  141.1475  158.0527 O.3     1  UNL1       -0.3501
     16 C         138.3201  142.3511  158.9448 C.3     1  UNL1        0.1637
     17 C         138.5111  142.2004  160.4249 C.3     1  UNL1        0.1257
     18 C         141.8181  140.7290  171.2493 C.3     1  UNL1        0.1152
     19 N         141.6270  140.8797  169.7691 N.am    1  UNL1       -0.2726
     20 C         142.7859  140.6758  168.8387 C.3     1  UNL1        0.1152
     21 C         140.2772  141.2341  169.2194 C.2     1  UNL1        0.2491
     22 O         139.1184  141.4379  170.1498 O.2     1  UNL1       -0.2699
     23 C         140.6052  144.1194  164.9103 C.3     1  UNL1        0.1209
     24 N         141.3069  144.1053  163.5846 N.pl3   1  UNL1       -0.2977
     25 C         140.6657  144.7469  162.3899 C.3     1  UNL1        0.1388
     26 C         141.3674  144.7328  161.0642 C.3     1  UNL1        0.2269
     27 O         142.7102  144.0772  160.9332 O.3     1  UNL1       -0.4701
     28 C         143.3513  143.4357  162.1279 C.ar    1  UNL1        0.1790
     29 C         144.6940  142.7801  161.9970 C.ar    1  UNL1        0.1751
     30 F         145.3957  142.7660  160.6712 F       1  UNL1       -0.2009
     31 C         145.3351  142.1385  163.1917 C.ar    1  UNL1        0.0329
     32 C         144.6335  142.1525  164.5174 C.ar    1  UNL1        0.0038
     33 C         143.2908  142.8081  164.6483 C.ar    1  UNL1        0.0178
     34 C         142.6497  143.4497  163.4536 C.ar    1  UNL1        0.0849
@<TRIPOS>BOND
     1    18    19    1
     2    19    20    1
     3    19    21   am
     4    21    22    2
     5    21     1    1
     6     1     2   ar
     7     2     3   ar
     8     3    23    1
     9    23    24    1
    10    24    25    1
    11    25    26    1
    12    26    27    1
    13    27    28    1
    14    28    29   ar
    15    29    30    1
    16    29    31   ar
    17    31    32   ar
    18    32    33   ar
    19    33    34   ar
    20     3     4   ar
    21     4     5   ar
    22     5     6   ar
    23     6    12    1
    24    12    13    1
    25    13    14    1
    26    14    15    1
    27    15    16    1
    28    16    17    1
    29     6     7   ar
    30     7     8   ar
    31     8     9    2
    32     8    10   ar
    33    10    11   ar
    34    11     1   ar
    35    34    24    1
    36    10     4   ar
    37    34    28   ar
    38    17    12    1
@<TRIPOS>MOLECULE
*****
 34 38 0 0 0
SMALL
GASTEIGER

@<TRIPOS>ATOM
      1 C         140.0124  141.0433  167.8044 C.ar    1  UNL1        0.0536
      2 C         140.3592  142.2431  166.9736 C.ar    1  UNL1        0.0049
      3 C         140.2215  142.1871  165.4810 C.ar    1  UNL1        0.0325
      4 C         139.7370  140.9313  164.8191 C.ar    1  UNL1        0.1475
      5 O         139.5992  140.8753  163.3265 O.2     1  UNL1       -0.4400
      6 C         139.1147  139.6195  162.6646 C.ar    1  UNL1        0.2024
      7 C         138.7678  138.4197  163.4954 C.ar    1  UNL1        0.0955
      8 C         138.9056  138.4757  164.9880 C.ar    1  UNL1        0.2030
      9 O         138.5588  137.2759  165.8187 O.2     1  UNL1       -0.2863
     10 C         139.3901  139.7315  165.6499 C.ar    1  UNL1        0.0735
     11 C         139.5279  139.7875  167.1425 C.ar    1  UNL1        0.0107
     12 N         138.9769  139.5635  161.1720 N.pl3   1  UNL1       -0.2742
     13 C         138.0758  140.5322  160.4651 C.3     1  UNL1        0.1257
     14 C         137.9380  140.4762  158.9725 C.3     1  UNL1        0.1637
     15 O         138.7015  139.4515  158.1868 O.3     1  UNL1       -0.3501
     16 C         139.6026  138.4829  158.8937 C.3     1  UNL1        0.1637
     17 C         139.7403  138.5389  160.3863 C.3     1  UNL1        0.1257
     18 C         141.6410  141.0240  171.4234 C.3     1  UNL1        0.1152
     19 N         141.5033  140.9680  169.9307 N.am    1  UNL1       -0.2726
     20 C         142.7188  140.7806  169.0719 C.3     1  UNL1        0.1152
     21 C         140.1502  141.0993  169.2970 C.2     1  UNL1        0.2491
     22 O         138.9348  141.2867  170.1558 O.2     1  UNL1       -0.2699
     23 C         140.5684  143.3870  164.6503 C.3     1  UNL1        0.1209
     24 N         141.7408  143.3388  163.7159 N.pl3   1  UNL1       -0.2977
     25 C         143.1250  143.1413  164.2589 C.3     1  UNL1        0.1388
     26 C         144.2974  143.0931  163.3245 C.3     1  UNL1        0.2269
     27 O         144.0856  143.2424  161.8471 O.3     1  UNL1       -0.4701
     28 C         142.7014  143.4399  161.3040 C.ar    1  UNL1        0.1790
     29 C         142.4895  143.5892  159.8266 C.ar    1  UNL1        0.1751
     30 F         143.6620  143.5410  158.8921 F       1  UNL1       -0.2009
     31 C         141.1053  143.7867  159.2836 C.ar    1  UNL1        0.0329
     32 C         139.9329  143.8349  160.2180 C.ar    1  UNL1        0.0038
     33 C         140.1447  143.6856  161.6954 C.ar    1  UNL1        0.0178
     34 C         141.5290  143.4881  162.2384 C.ar    1  UNL1        0.0849
@<TRIPOS>BOND
     1    18    19    1
     2    19    20    1
     3    19    21   am
     4    21    22    2
     5    21     1    1
     6     1     2   ar
     7     2     3   ar
     8     3    23    1
     9    23    24    1
    10    24    25    1
    11    25    26    1
    12    26    27    1
    13    27    28    1
    14    28    29   ar
    15    29    30    1
    16    29    31   ar
    17    31    32   ar
    18    32    33   ar
    19    33    34   ar
    20     3     4   ar
    21     4     5   ar
    22     5     6   ar
    23     6    12    1
    24    12    13    1
    25    13    14    1
    26    14    15    1
    27    15    16    1
    28    16    17    1
    29     6     7   ar
    30     7     8   ar
    31     8     9    2
    32     8    10   ar
    33    10    11   ar
    34    11     1   ar
    35    34    24    1
    36    10     4   ar
    37    34    28   ar
    38    17    12    1
@<TRIPOS>MOLECULE
*****
 34 38 0 0 0
SMALL
GASTEIGER

@<TRIPOS>ATOM
      1 C         142.2750  140.9457  167.5258 C.ar    1  UNL1        0.0536
      2 C         141.4866  140.0652  166.6022 C.ar    1  UNL1        0.0049
      3 C         141.5608  140.2768  165.1191 C.ar    1  UNL1        0.0325
      4 C         142.4233  141.3690  164.5596 C.ar    1  UNL1        0.1475
      5 O         142.4974  141.5807  163.0764 O.2     1  UNL1       -0.4400
      6 C         143.3599  142.6728  162.5169 C.ar    1  UNL1        0.2024
      7 C         144.1484  143.5535  163.4405 C.ar    1  UNL1        0.0955
      8 C         144.0742  143.3418  164.9236 C.ar    1  UNL1        0.2030
      9 O         144.8626  144.2224  165.8472 O.2     1  UNL1       -0.2863
     10 C         143.2116  142.2496  165.4831 C.ar    1  UNL1        0.0735
     11 C         143.1375  142.0379  166.9663 C.ar    1  UNL1        0.0107
     12 N         143.4341  142.8845  161.0337 N.pl3   1  UNL1       -0.2742
     13 C         142.3387  143.6259  160.3262 C.3     1  UNL1        0.1257
     14 C         142.4128  143.8375  158.8431 C.3     1  UNL1        0.1637
     15 O         143.5824  143.3078  158.0674 O.3     1  UNL1       -0.3501
     16 C         144.6777  142.5664  158.7749 C.3     1  UNL1        0.1637
     17 C         144.6035  142.3547  160.2581 C.3     1  UNL1        0.1257
     18 C         141.1798  141.3397  171.3199 C.3     1  UNL1        0.1152
     19 N         141.2539  141.5514  169.8368 N.am    1  UNL1       -0.2726
     20 C         140.3811  142.5804  169.1815 C.3     1  UNL1        0.1152
     21 C         142.2008  140.7341  169.0090 C.2     1  UNL1        0.2491
     22 O         143.0736  139.7052  169.6643 O.2     1  UNL1       -0.2699
     23 C         140.7723  139.3962  164.1955 C.3     1  UNL1        0.1209
     24 N         139.6599  139.9766  163.3736 N.pl3   1  UNL1       -0.2977
     25 C         138.6169  140.8365  164.0238 C.3     1  UNL1        0.1388
     26 C         137.5044  141.4169  163.2019 C.3     1  UNL1        0.2269
     27 O         137.4349  141.1375  161.7298 O.3     1  UNL1       -0.4701
     28 C         138.4779  140.2776  161.0796 C.ar    1  UNL1        0.1790
     29 C         138.4084  139.9981  159.6076 C.ar    1  UNL1        0.1751
     30 F         137.2959  140.5785  158.7856 F       1  UNL1       -0.2009
     31 C         139.4514  139.1382  158.9574 C.ar    1  UNL1        0.0329
     32 C         140.5639  138.5578  159.7792 C.ar    1  UNL1        0.0038
     33 C         140.6334  138.8372  161.2513 C.ar    1  UNL1        0.0178
     34 C         139.5904  139.6971  161.9015 C.ar    1  UNL1        0.0849
@<TRIPOS>BOND
     1    18    19    1
     2    19    20    1
     3    19    21   am
     4    21    22    2
     5    21     1    1
     6     1     2   ar
     7     2     3   ar
     8     3    23    1
     9    23    24    1
    10    24    25    1
    11    25    26    1
    12    26    27    1
    13    27    28    1
    14    28    29   ar
    15    29    30    1
    16    29    31   ar
    17    31    32   ar
    18    32    33   ar
    19    33    34   ar
    20     3     4   ar
    21     4     5   ar
    22     5     6   ar
    23     6    12    1
    24    12    13    1
    25    13    14    1
    26    14    15    1
    27    15    16    1
    28    16    17    1
    29     6     7   ar
    30     7     8   ar
    31     8     9    2
    32     8    10   ar
    33    10    11   ar
    34    11     1   ar
    35    34    24    1
    36    10     4   ar
    37    34    28   ar
    38    17    12    1
@<TRIPOS>MOLECULE
*****
 34 38 0 0 0
SMALL
GASTEIGER

@<TRIPOS>ATOM
      1 C         141.8837  139.8592  167.4219 C.ar    1  UNL1        0.0536
      2 C         142.9960  140.0234  166.4291 C.ar    1  UNL1        0.0049
      3 C         142.7014  139.9819  164.9589 C.ar    1  UNL1        0.0325
      4 C         141.2944  139.7761  164.4815 C.ar    1  UNL1        0.1475
      5 O         140.9998  139.7346  163.0113 O.2     1  UNL1       -0.4400
      6 C         139.5928  139.5288  162.5339 C.ar    1  UNL1        0.2024
      7 C         138.4803  139.3645  163.5267 C.ar    1  UNL1        0.0955
      8 C         138.7750  139.4061  164.9969 C.ar    1  UNL1        0.2030
      9 O         137.6626  139.2418  165.9897 O.2     1  UNL1       -0.2863
     10 C         140.1821  139.6119  165.4743 C.ar    1  UNL1        0.0735
     11 C         140.4767  139.6534  166.9445 C.ar    1  UNL1        0.0107
     12 N         139.2981  139.4873  161.0637 N.pl3   1  UNL1       -0.2742
     13 C         138.2208  140.3591  160.4898 C.3     1  UNL1        0.1257
     14 C         137.9261  140.3176  159.0196 C.3     1  UNL1        0.1637
     15 O         138.7088  139.4042  158.1233 O.3     1  UNL1       -0.3501
     16 C         139.7861  138.5324  158.6973 C.3     1  UNL1        0.1637
     17 C         140.0807  138.5740  160.1675 C.3     1  UNL1        0.1257
     18 C         142.1228  141.1611  171.1632 C.3     1  UNL1        0.1152
     19 N         141.8282  141.1196  169.6930 N.am    1  UNL1       -0.2726
     20 C         141.1833  142.2971  169.0238 C.3     1  UNL1        0.1152
     21 C         142.1783  139.9007  168.8921 C.2     1  UNL1        0.2491
     22 O         142.8232  138.7233  169.5613 O.2     1  UNL1       -0.2699
     23 C         143.8138  140.1461  163.9661 C.3     1  UNL1        0.1209
     24 N         143.8719  141.3697  163.1004 N.pl3   1  UNL1       -0.2977
     25 C         143.9481  142.7298  163.7284 C.3     1  UNL1        0.1388
     26 C         144.0062  143.9534  162.8626 C.3     1  UNL1        0.2269
     27 O         143.9881  143.8169  161.3690 O.3     1  UNL1       -0.4701
     28 C         143.9119  142.4568  160.7410 C.ar    1  UNL1        0.1790
     29 C         143.8937  142.3202  159.2474 C.ar    1  UNL1        0.1751
     30 F         143.9518  143.5438  158.3816 F       1  UNL1       -0.2009
     31 C         143.8175  140.9601  158.6195 C.ar    1  UNL1        0.0329
     32 C         143.7595  139.7365  159.4851 C.ar    1  UNL1        0.0038
     33 C         143.7776  139.8731  160.9788 C.ar    1  UNL1        0.0178
     34 C         143.8538  141.2332  161.6067 C.ar    1  UNL1        0.0849
@<TRIPOS>BOND
     1    18    19    1
     2    19    20    1
     3    19    21   am
     4    21    22    2
     5    21     1    1
     6     1     2   ar
     7     2     3   ar
     8     3    23    1
     9    23    24    1
    10    24    25    1
    11    25    26    1
    12    26    27    1
    13    27    28    1
    14    28    29   ar
    15    29    30    1
    16    29    31   ar
    17    31    32   ar
    18    32    33   ar
    19    33    34   ar
    20     3     4   ar
    21     4     5   ar
    22     5     6   ar
    23     6    12    1
    24    12    13    1
    25    13    14    1
    26    14    15    1
    27    15    16    1
    28    16    17    1
    29     6     7   ar
    30     7     8   ar
    31     8     9    2
    32     8    10   ar
    33    10    11   ar
    34    11     1   ar
    35    34    24    1
    36    10     4   ar
    37    34    28   ar
    38    17    12    1
@<TRIPOS>MOLECULE
*****
 34 38 0 0 0
SMALL
GASTEIGER

@<TRIPOS>ATOM
      1 C         141.3566  142.2023  167.3491 C.ar    1  UNL1        0.0536
      2 C         142.2808  141.4655  166.4256 C.ar    1  UNL1        0.0049
      3 C         142.1912  141.6831  164.9442 C.ar    1  UNL1        0.0325
      4 C         141.1774  142.6375  164.3863 C.ar    1  UNL1        0.1475
      5 O         141.0878  142.8550  162.9048 O.2     1  UNL1       -0.4400
      6 C         140.0740  143.8094  162.3469 C.ar    1  UNL1        0.2024
      7 C         139.1498  144.5463  163.2704 C.ar    1  UNL1        0.0955
      8 C         139.2394  144.3287  164.7519 C.ar    1  UNL1        0.2030
      9 O         138.3152  145.0656  165.6754 O.2     1  UNL1       -0.2863
     10 C         140.2533  143.3743  165.3098 C.ar    1  UNL1        0.0735
     11 C         140.3429  143.1567  166.7912 C.ar    1  UNL1        0.0107
     12 N         139.9844  144.0270  160.8655 N.pl3   1  UNL1       -0.2742
     13 C         139.3410  142.9904  159.9928 C.3     1  UNL1        0.1257
     14 C         139.2513  143.2079  158.5113 C.3     1  UNL1        0.1637
     15 O         139.8052  144.4621  157.9026 O.3     1  UNL1       -0.3501
     16 C         140.4486  145.4985  158.7753 C.3     1  UNL1        0.1637
     17 C         140.5383  145.2810  160.2567 C.3     1  UNL1        0.1257
     18 C         140.6916  140.7152  170.9680 C.3     1  UNL1        0.1152
     19 N         140.6020  140.9328  169.4865 N.am    1  UNL1       -0.2726
     20 C         139.6680  140.0982  168.6611 C.3     1  UNL1        0.1152
     21 C         141.4463  141.9848  168.8306 C.2     1  UNL1        0.2491
     22 O         142.3802  142.8193  169.6560 O.2     1  UNL1       -0.2699
     23 C         143.1155  140.9462  164.0207 C.3     1  UNL1        0.1209
     24 N         142.5968  139.8101  163.1899 N.pl3   1  UNL1       -0.2977
     25 C         141.8349  138.6930  163.8390 C.3     1  UNL1        0.1388
     26 C         141.3162  137.5569  163.0081 C.3     1  UNL1        0.2269
     27 O         141.5594  137.5380  161.5281 O.3     1  UNL1       -0.4701
     28 C         142.3213  138.6551  160.8790 C.ar    1  UNL1        0.1790
     29 C         142.5645  138.6363  159.3990 C.ar    1  UNL1        0.1751
     30 F         142.0458  137.5002  158.5681 F       1  UNL1       -0.2009
     31 C         143.3264  139.7534  158.7498 C.ar    1  UNL1        0.0329
     32 C         143.8451  140.8895  159.5806 C.ar    1  UNL1        0.0038
     33 C         143.6019  140.9084  161.0606 C.ar    1  UNL1        0.0178
     34 C         142.8400  139.7912  161.7098 C.ar    1  UNL1        0.0849
@<TRIPOS>BOND
     1    18    19    1
     2    19    20    1
     3    19    21   am
     4    21    22    2
     5    21     1    1
     6     1     2   ar
     7     2     3   ar
     8     3    23    1
     9    23    24    1
    10    24    25    1
    11    25    26    1
    12    26    27    1
    13    27    28    1
    14    28    29   ar
    15    29    30    1
    16    29    31   ar
    17    31    32   ar
    18    32    33   ar
    19    33    34   ar
    20     3     4   ar
    21     4     5   ar
    22     5     6   ar
    23     6    12    1
    24    12    13    1
    25    13    14    1
    26    14    15    1
    27    15    16    1
    28    16    17    1
    29     6     7   ar
    30     7     8   ar
    31     8     9    2
    32     8    10   ar
    33    10    11   ar
    34    11     1   ar
    35    34    24    1
    36    10     4   ar
    37    34    28   ar
    38    17    12    1
@<TRIPOS>MOLECULE
*****
 34 38 0 0 0
SMALL
GASTEIGER

@<TRIPOS>ATOM
      1 C         142.6254  140.8182  167.9564 C.ar    1  UNL1        0.0536
      2 C         142.1094  139.6208  167.2148 C.ar    1  UNL1        0.0049
      3 C         142.2969  139.5201  165.7300 C.ar    1  UNL1        0.0325
      4 C         143.0004  140.6168  164.9868 C.ar    1  UNL1        0.1475
      5 O         143.1879  140.5161  163.5020 O.2     1  UNL1       -0.4400
      6 C         143.8914  141.6128  162.7588 C.ar    1  UNL1        0.2024
      7 C         144.4074  142.8102  163.5004 C.ar    1  UNL1        0.0955
      8 C         144.2198  142.9109  164.9852 C.ar    1  UNL1        0.2030
      9 O         144.7358  144.1083  165.7268 O.2     1  UNL1       -0.2863
     10 C         143.5163  141.8142  165.7284 C.ar    1  UNL1        0.0735
     11 C         143.3288  141.9149  167.2132 C.ar    1  UNL1        0.0107
     12 N         144.0789  141.5121  161.2739 N.pl3   1  UNL1       -0.2742
     13 C         143.7167  140.2455  160.5565 C.3     1  UNL1        0.1257
     14 C         143.9043  140.1448  159.0716 C.3     1  UNL1        0.1637
     15 O         144.4539  141.3107  158.3043 O.3     1  UNL1       -0.3501
     16 C         144.8160  142.5772  159.0218 C.3     1  UNL1        0.1637
     17 C         144.6285  142.6779  160.5066 C.3     1  UNL1        0.1257
     18 C         141.0938  141.7940  171.4852 C.3     1  UNL1        0.1152
     19 N         141.2813  141.6933  170.0004 N.am    1  UNL1       -0.2726
     20 C         140.3121  142.3670  169.0746 C.3     1  UNL1        0.1152
     21 C         142.4379  140.9189  169.4413 C.2     1  UNL1        0.2491
     22 O         143.4069  140.2453  170.3670 O.2     1  UNL1       -0.2699
     23 C         141.7809  138.3227  164.9884 C.3     1  UNL1        0.1209
     24 N         141.0761  138.4996  163.6762 N.pl3   1  UNL1       -0.2977
     25 C         141.5908  137.8074  162.4491 C.3     1  UNL1        0.1388
     26 C         140.8859  137.9843  161.1368 C.3     1  UNL1        0.2269
     27 O         139.6663  138.8533  161.0518 O.3     1  UNL1       -0.4701
     28 C         139.1515  139.5455  162.2790 C.ar    1  UNL1        0.1790
     29 C         137.9319  140.4145  162.1940 C.ar    1  UNL1        0.1751
     30 F         137.2270  140.5915  160.8818 F       1  UNL1       -0.2009
     31 C         137.4172  141.1067  163.4212 C.ar    1  UNL1        0.0329
     32 C         138.1220  140.9298  164.7334 C.ar    1  UNL1        0.0038
     33 C         139.3416  140.0608  164.8183 C.ar    1  UNL1        0.0178
     34 C         139.8564  139.3686  163.5912 C.ar    1  UNL1        0.0849
@<TRIPOS>BOND
     1    18    19    1
     2    19    20    1
     3    19    21   am
     4    21    22    2
     5    21     1    1
     6     1     2   ar
     7     2     3   ar
     8     3    23    1
     9    23    24    1
    10    24    25    1
    11    25    26    1
    12    26    27    1
    13    27    28    1
    14    28    29   ar
    15    29    30    1
    16    29    31   ar
    17    31    32   ar
    18    32    33   ar
    19    33    34   ar
    20     3     4   ar
    21     4     5   ar
    22     5     6   ar
    23     6    12    1
    24    12    13    1
    25    13    14    1
    26    14    15    1
    27    15    16    1
    28    16    17    1
    29     6     7   ar
    30     7     8   ar
    31     8     9    2
    32     8    10   ar
    33    10    11   ar
    34    11     1   ar
    35    34    24    1
    36    10     4   ar
    37    34    28   ar
    38    17    12    1
