@<TRIPOS>MOLECULE
*****
 26 28 0 0 0
SMALL
GASTEIGER

@<TRIPOS>ATOM
      1 C         138.6885  139.2454  166.7567 C.2     1  UNL1        0.2461
      2 O         137.6534  138.6591  167.6703 O.2     1  UNL1       -0.2701
      3 N         139.7754  140.1154  167.3151 N.am    1  UNL1       -0.2967
      4 H         140.4547  140.5003  166.7154 H       1  UNL1        0.1501
      5 N         137.5692  140.2068  159.0466 N.pl3   1  UNL1       -0.3375
      6 C         137.8675  139.7578  160.4463 C.ar    1  UNL1        0.1567
      7 N         138.3772  138.4057  160.8488 N.ar    1  UNL1       -0.2245
      8 C         138.5333  138.3943  162.3407 C.ar    1  UNL1        0.0892
      9 C         138.9983  137.3329  163.2931 C.ar    1  UNL1        0.0198
     10 C         139.0500  137.6166  164.7651 C.ar    1  UNL1        0.0061
     11 C         138.6367  138.9618  165.2846 C.ar    1  UNL1        0.0540
     12 C         138.1718  140.0231  164.3322 C.ar    1  UNL1        0.0126
     13 C         138.1200  139.7394  162.8602 C.ar    1  UNL1        0.0498
     14 S         137.7086  140.5821  161.6894 S.2     1  UNL1       -0.0520
     15 H         137.7062  139.5896  158.2919 H       1  UNL1        0.1442
     16 H         137.2364  141.1187  158.8825 H       1  UNL1        0.1442
     17 C         139.8271  140.3991  168.7871 C.3     1  UNL1        0.1227
     18 C         140.8878  141.3045  169.3396 C.ar    1  UNL1        0.0668
     19 C         140.5336  142.6947  169.7776 C.ar    1  UNL1        0.0035
     20 C         141.5943  143.6001  170.3300 C.ar    1  UNL1        0.0001
     21 C         143.0092  143.1152  170.4446 C.ar    1  UNL1        0.0063
     22 C         143.3633  141.7250  170.0066 C.ar    1  UNL1        0.0750
     23 C         142.3026  140.8196  169.4541 C.ar    1  UNL1        0.2876
     24 N         142.6567  139.4294  169.0162 N.pl3   1  UNL1        0.0806
     25 O         142.8608  138.3503  170.0379 O.2     1  UNL1        0.0415
     26 O         142.8068  139.1182  167.5565 O.co2   1  UNL1       -0.5760
@<TRIPOS>UNITY_ATOM_ATTR
24 1
charge 1
26 1
charge -1
@<TRIPOS>BOND
     1     5     6    1
     2     6     7   ar
     3     7     8   ar
     4     8     9   ar
     5     9    10   ar
     6    10    11   ar
     7    11     1    1
     8     1     2    2
     9     1     3   am
    10     3    17    1
    11    17    18    1
    12    18    19   ar
    13    19    20   ar
    14    20    21   ar
    15    21    22   ar
    16    22    23   ar
    17    23    24    1
    18    24    25    2
    19    24    26    1
    20    11    12   ar
    21    12    13   ar
    22    13    14   ar
    23    14     6   ar
    24    13     8   ar
    25    23    18   ar
    26     5    15    1
    27     5    16    1
    28     3     4    1
@<TRIPOS>MOLECULE
*****
 26 28 0 0 0
SMALL
GASTEIGER

@<TRIPOS>ATOM
      1 C         142.8292  138.6552  166.1570 C.2     1  UNL1        0.2461
      2 O         143.9910  138.0011  166.8443 O.2     1  UNL1       -0.2701
      3 N         141.8928  139.5306  166.9361 N.am    1  UNL1       -0.2967
      4 H         141.1303  139.9599  166.4851 H       1  UNL1        0.1501
      5 N         143.7079  139.0626  158.3670 N.pl3   1  UNL1       -0.3375
      6 C         143.3174  138.8129  159.7936 C.ar    1  UNL1        0.1567
      7 N         142.1756  137.9584  160.2585 N.ar    1  UNL1       -0.2245
      8 C         142.1526  137.9913  161.7580 C.ar    1  UNL1        0.0892
      9 C         141.2506  137.3377  162.7625 C.ar    1  UNL1        0.0198
     10 C         141.4762  137.5590  164.2289 C.ar    1  UNL1        0.0061
     11 C         142.6037  138.4339  164.6906 C.ar    1  UNL1        0.0540
     12 C         143.5056  139.0876  163.6861 C.ar    1  UNL1        0.0126
     13 C         143.2801  138.8663  162.2198 C.ar    1  UNL1        0.0498
     14 S         143.9999  139.3740  161.0057 S.2     1  UNL1       -0.0520
     15 H         143.1952  138.6472  157.6363 H       1  UNL1        0.1442
     16 H         144.4770  139.6418  158.1613 H       1  UNL1        0.1442
     17 C         142.1183  139.7519  168.4025 C.3     1  UNL1        0.1227
     18 C         141.3688  140.8339  169.1217 C.ar    1  UNL1        0.0668
     19 C         140.0221  140.5457  169.7162 C.ar    1  UNL1        0.0035
     20 C         139.2726  141.6277  170.4354 C.ar    1  UNL1        0.0001
     21 C         139.8697  142.9981  170.5601 C.ar    1  UNL1        0.0063
     22 C         141.2164  143.2864  169.9656 C.ar    1  UNL1        0.0750
     23 C         141.9659  142.2043  169.2464 C.ar    1  UNL1        0.2876
     24 N         143.3126  142.4925  168.6519 N.pl3   1  UNL1        0.0806
     25 O         143.4962  142.4678  167.1634 O.2     1  UNL1        0.0415
     26 O         144.4757  142.8056  169.5460 O.co2   1  UNL1       -0.5760
@<TRIPOS>UNITY_ATOM_ATTR
24 1
charge 1
26 1
charge -1
@<TRIPOS>BOND
     1     5     6    1
     2     6     7   ar
     3     7     8   ar
     4     8     9   ar
     5     9    10   ar
     6    10    11   ar
     7    11     1    1
     8     1     2    2
     9     1     3   am
    10     3    17    1
    11    17    18    1
    12    18    19   ar
    13    19    20   ar
    14    20    21   ar
    15    21    22   ar
    16    22    23   ar
    17    23    24    1
    18    24    25    2
    19    24    26    1
    20    11    12   ar
    21    12    13   ar
    22    13    14   ar
    23    14     6   ar
    24    13     8   ar
    25    23    18   ar
    26     5    15    1
    27     5    16    1
    28     3     4    1
@<TRIPOS>MOLECULE
*****
 26 28 0 0 0
SMALL
GASTEIGER

@<TRIPOS>ATOM
      1 C         142.7785  138.6404  166.3307 C.2     1  UNL1        0.2461
      2 O         144.0079  138.0880  166.9891 O.2     1  UNL1       -0.2701
      3 N         141.7880  139.4299  167.1341 N.am    1  UNL1       -0.2967
      4 H         140.9811  139.7925  166.7020 H       1  UNL1        0.1501
      5 N         143.6197  138.9190  158.5308 N.pl3   1  UNL1       -0.3375
      6 C         143.2324  138.6979  159.9630 C.ar    1  UNL1        0.1567
      7 N         142.0756  137.8745  160.4465 N.ar    1  UNL1       -0.2245
      8 C         142.0621  137.9291  161.9455 C.ar    1  UNL1        0.0892
      9 C         141.1524  137.3090  162.9642 C.ar    1  UNL1        0.0198
     10 C         141.3912  137.5462  164.4260 C.ar    1  UNL1        0.0061
     11 C         142.5397  138.4033  164.8689 C.ar    1  UNL1        0.0540
     12 C         143.4494  139.0234  163.8501 C.ar    1  UNL1        0.0126
     13 C         143.2106  138.7862  162.3884 C.ar    1  UNL1        0.0498
     14 S         143.9339  139.2614  161.1632 S.2     1  UNL1       -0.0520
     15 H         143.0940  138.5043  157.8091 H       1  UNL1        0.1442
     16 H         144.3996  139.4788  158.3126 H       1  UNL1        0.1442
     17 C         142.0268  139.6670  168.5959 C.3     1  UNL1        0.1227
     18 C         141.6371  140.9756  169.2169 C.ar    1  UNL1        0.0668
     19 C         142.6642  142.0528  169.4033 C.ar    1  UNL1        0.0035
     20 C         142.2745  143.3613  170.0243 C.ar    1  UNL1        0.0001
     21 C         140.8576  143.5928  170.4590 C.ar    1  UNL1        0.0063
     22 C         139.8305  142.5156  170.2727 C.ar    1  UNL1        0.0750
     23 C         140.2203  141.2070  169.6516 C.ar    1  UNL1        0.2876
     24 N         139.1931  140.1299  169.4652 N.pl3   1  UNL1        0.0806
     25 O         138.9160  139.5868  168.0947 O.2     1  UNL1        0.0415
     26 O         138.4431  139.5958  170.6494 O.co2   1  UNL1       -0.5760
@<TRIPOS>UNITY_ATOM_ATTR
24 1
charge 1
26 1
charge -1
@<TRIPOS>BOND
     1     5     6    1
     2     6     7   ar
     3     7     8   ar
     4     8     9   ar
     5     9    10   ar
     6    10    11   ar
     7    11     1    1
     8     1     2    2
     9     1     3   am
    10     3    17    1
    11    17    18    1
    12    18    19   ar
    13    19    20   ar
    14    20    21   ar
    15    21    22   ar
    16    22    23   ar
    17    23    24    1
    18    24    25    2
    19    24    26    1
    20    11    12   ar
    21    12    13   ar
    22    13    14   ar
    23    14     6   ar
    24    13     8   ar
    25    23    18   ar
    26     5    15    1
    27     5    16    1
    28     3     4    1
@<TRIPOS>MOLECULE
*****
 26 28 0 0 0
SMALL
GASTEIGER

@<TRIPOS>ATOM
      1 C         139.1941  139.1913  166.4209 C.2     1  UNL1        0.2461
      2 O         137.7339  138.9731  166.1557 O.2     1  UNL1       -0.2701
      3 N         140.2193  138.6244  165.4842 N.am    1  UNL1       -0.2967
      4 H         141.1777  138.7676  165.6583 H       1  UNL1        0.1501
      5 N         143.4176  143.8676  171.1024 N.pl3   1  UNL1       -0.3375
      6 C         142.4326  142.9554  170.4334 C.ar    1  UNL1        0.1567
      7 N         141.1768  142.4113  171.0474 N.ar    1  UNL1       -0.2245
      8 C         140.4985  141.5467  170.0265 C.ar    1  UNL1        0.0892
      9 C         139.2272  140.7519  170.0696 C.ar    1  UNL1        0.0198
     10 C         138.7924  139.9668  168.8678 C.ar    1  UNL1        0.0061
     11 C         139.6289  139.9765  167.6228 C.ar    1  UNL1        0.0540
     12 C         140.9002  140.7714  167.5796 C.ar    1  UNL1        0.0126
     13 C         141.3350  141.5565  168.7814 C.ar    1  UNL1        0.0498
     14 S         142.5303  142.4271  169.0329 S.2     1  UNL1       -0.0520
     15 H         143.2654  144.1615  172.0296 H       1  UNL1        0.1442
     16 H         144.2164  144.1725  170.6142 H       1  UNL1        0.1442
     17 C         139.7845  137.8392  164.2823 C.3     1  UNL1        0.1227
     18 C         139.5374  138.5388  162.9787 C.ar    1  UNL1        0.0668
     19 C         138.1401  138.6632  162.4474 C.ar    1  UNL1        0.0035
     20 C         137.8930  139.3627  161.1437 C.ar    1  UNL1        0.0001
     21 C         139.0431  139.9379  160.3713 C.ar    1  UNL1        0.0063
     22 C         140.4403  139.8135  160.9027 C.ar    1  UNL1        0.0750
     23 C         140.6874  139.1139  162.2064 C.ar    1  UNL1        0.2876
     24 N         142.0846  138.9895  162.7377 N.pl3   1  UNL1        0.0806
     25 O         143.0061  137.9420  162.1867 O.2     1  UNL1        0.0415
     26 O         142.5604  139.9127  163.8201 O.co2   1  UNL1       -0.5760
@<TRIPOS>UNITY_ATOM_ATTR
24 1
charge 1
26 1
charge -1
@<TRIPOS>BOND
     1     5     6    1
     2     6     7   ar
     3     7     8   ar
     4     8     9   ar
     5     9    10   ar
     6    10    11   ar
     7    11     1    1
     8     1     2    2
     9     1     3   am
    10     3    17    1
    11    17    18    1
    12    18    19   ar
    13    19    20   ar
    14    20    21   ar
    15    21    22   ar
    16    22    23   ar
    17    23    24    1
    18    24    25    2
    19    24    26    1
    20    11    12   ar
    21    12    13   ar
    22    13    14   ar
    23    14     6   ar
    24    13     8   ar
    25    23    18   ar
    26     5    15    1
    27     5    16    1
    28     3     4    1
@<TRIPOS>MOLECULE
*****
 26 28 0 0 0
SMALL
GASTEIGER

@<TRIPOS>ATOM
      1 C         138.5321  139.3300  166.3427 C.2     1  UNL1        0.2461
      2 O         137.4132  138.7096  167.1259 O.2     1  UNL1       -0.2701
      3 N         139.5251  140.2197  167.0297 N.am    1  UNL1       -0.2967
      4 H         140.2595  140.6269  166.5157 H       1  UNL1        0.1501
      5 N         137.9215  140.1752  158.5622 N.pl3   1  UNL1       -0.3375
      6 C         138.1747  139.7687  159.9837 C.ar    1  UNL1        0.1567
      7 N         138.8817  138.5241  160.4323 N.ar    1  UNL1       -0.2245
      8 C         138.9092  138.5216  161.9320 C.ar    1  UNL1        0.0892
      9 C         139.4734  137.5480  162.9239 C.ar    1  UNL1        0.0198
     10 C         139.3477  137.8175  164.3941 C.ar    1  UNL1        0.0061
     11 C         138.6578  139.0605  164.8724 C.ar    1  UNL1        0.0540
     12 C         138.0936  140.0341  163.8806 C.ar    1  UNL1        0.0126
     13 C         138.2193  139.7646  162.4104 C.ar    1  UNL1        0.0498
     14 S         137.7653  140.5354  161.2063 S.2     1  UNL1       -0.0520
     15 H         138.2306  139.6021  157.8238 H       1  UNL1        0.1442
     16 H         137.4463  141.0152  158.3676 H       1  UNL1        0.1442
     17 C         139.3994  140.4892  168.5000 C.3     1  UNL1        0.1227
     18 C         140.6250  140.5203  169.3643 C.ar    1  UNL1        0.0668
     19 C         141.5359  139.3298  169.4172 C.ar    1  UNL1        0.0035
     20 C         142.7614  139.3609  170.2815 C.ar    1  UNL1        0.0001
     21 C         143.0762  140.5827  171.0929 C.ar    1  UNL1        0.0063
     22 C         142.1653  141.7733  171.0399 C.ar    1  UNL1        0.0750
     23 C         140.9397  141.7421  170.1756 C.ar    1  UNL1        0.2876
     24 N         140.0288  142.9327  170.1227 N.pl3   1  UNL1        0.0806
     25 O         140.0402  143.8330  168.9230 O.2     1  UNL1        0.0415
     26 O         139.1064  143.2229  171.2695 O.co2   1  UNL1       -0.5760
@<TRIPOS>UNITY_ATOM_ATTR
24 1
charge 1
26 1
charge -1
@<TRIPOS>BOND
     1     5     6    1
     2     6     7   ar
     3     7     8   ar
     4     8     9   ar
     5     9    10   ar
     6    10    11   ar
     7    11     1    1
     8     1     2    2
     9     1     3   am
    10     3    17    1
    11    17    18    1
    12    18    19   ar
    13    19    20   ar
    14    20    21   ar
    15    21    22   ar
    16    22    23   ar
    17    23    24    1
    18    24    25    2
    19    24    26    1
    20    11    12   ar
    21    12    13   ar
    22    13    14   ar
    23    14     6   ar
    24    13     8   ar
    25    23    18   ar
    26     5    15    1
    27     5    16    1
    28     3     4    1
@<TRIPOS>MOLECULE
*****
 26 28 0 0 0
SMALL
GASTEIGER

@<TRIPOS>ATOM
      1 C         138.9989  141.4365  165.4693 C.2     1  UNL1        0.2461
      2 O         138.1464  140.2155  165.2890 O.2     1  UNL1       -0.2701
      3 N         139.7593  141.6384  166.7463 N.am    1  UNL1       -0.2967
      4 H         140.3188  142.4397  166.8647 H       1  UNL1        0.1501
      5 N         141.7936  145.6391  159.4567 N.pl3   1  UNL1       -0.3375
      6 C         141.0268  145.0034  160.5783 C.ar    1  UNL1        0.1567
      7 N         139.6506  145.3879  161.0346 N.ar    1  UNL1       -0.2245
      8 C         139.2749  144.4938  162.1789 C.ar    1  UNL1        0.0892
      9 C         138.0389  144.4119  163.0247 C.ar    1  UNL1        0.0198
     10 C         137.9469  143.3928  164.1215 C.ar    1  UNL1        0.0061
     11 C         139.0909  142.4556  164.3724 C.ar    1  UNL1        0.0540
     12 C         140.3269  142.5375  163.5266 C.ar    1  UNL1        0.0126
     13 C         140.4189  143.5566  162.4298 C.ar    1  UNL1        0.0498
     14 S         141.5016  143.8716  161.4406 S.2     1  UNL1       -0.0520
     15 H         141.3949  146.3804  158.9460 H       1  UNL1        0.1442
     16 H         142.6954  145.3151  159.2313 H       1  UNL1        0.1442
     17 C         139.6673  140.6192  167.8432 C.3     1  UNL1        0.1227
     18 C         140.7709  140.5015  168.8521 C.ar    1  UNL1        0.0668
     19 C         141.7212  139.3425  168.7925 C.ar    1  UNL1        0.0035
     20 C         142.8249  139.2248  169.8014 C.ar    1  UNL1        0.0001
     21 C         142.9783  140.2662  170.8701 C.ar    1  UNL1        0.0063
     22 C         142.0280  141.4252  170.9298 C.ar    1  UNL1        0.0750
     23 C         140.9243  141.5429  169.9208 C.ar    1  UNL1        0.2876
     24 N         139.9740  142.7019  169.9805 N.pl3   1  UNL1        0.0806
     25 O         140.0922  143.8206  168.9882 O.2     1  UNL1        0.0415
     26 O         138.9055  142.7423  171.0325 O.co2   1  UNL1       -0.5760
@<TRIPOS>UNITY_ATOM_ATTR
24 1
charge 1
26 1
charge -1
@<TRIPOS>BOND
     1     5     6    1
     2     6     7   ar
     3     7     8   ar
     4     8     9   ar
     5     9    10   ar
     6    10    11   ar
     7    11     1    1
     8     1     2    2
     9     1     3   am
    10     3    17    1
    11    17    18    1
    12    18    19   ar
    13    19    20   ar
    14    20    21   ar
    15    21    22   ar
    16    22    23   ar
    17    23    24    1
    18    24    25    2
    19    24    26    1
    20    11    12   ar
    21    12    13   ar
    22    13    14   ar
    23    14     6   ar
    24    13     8   ar
    25    23    18   ar
    26     5    15    1
    27     5    16    1
    28     3     4    1
@<TRIPOS>MOLECULE
*****
 26 28 0 0 0
SMALL
GASTEIGER

@<TRIPOS>ATOM
      1 C         138.7496  140.3456  165.2931 C.2     1  UNL1        0.2461
      2 O         138.6487  138.9956  164.6470 O.2     1  UNL1       -0.2701
      3 N         138.0169  141.5150  164.7054 N.am    1  UNL1       -0.2967
      4 H         138.0831  142.4010  165.1295 H       1  UNL1        0.1501
      5 N         144.5083  142.6953  170.0826 N.pl3   1  UNL1       -0.3375
      6 C         143.3067  142.1112  169.4007 C.ar    1  UNL1        0.1567
      7 N         142.2658  141.2413  170.0407 N.ar    1  UNL1       -0.2245
      8 C         141.2508  140.8868  168.9946 C.ar    1  UNL1        0.0892
      9 C         140.0034  140.0555  169.0473 C.ar    1  UNL1        0.0198
     10 C         139.1697  139.8751  167.8135 C.ar    1  UNL1        0.0061
     11 C         139.5834  140.5260  166.5269 C.ar    1  UNL1        0.0540
     12 C         140.8308  141.3573  166.4742 C.ar    1  UNL1        0.0126
     13 C         141.6645  141.5377  167.7080 C.ar    1  UNL1        0.0498
     14 S         142.9351  142.2944  167.9590 S.2     1  UNL1       -0.0520
     15 H         144.6675  142.5170  171.0377 H       1  UNL1        0.1442
     16 H         145.1378  143.2570  169.5751 H       1  UNL1        0.1442
     17 C         137.1831  141.3346  163.4716 C.3     1  UNL1        0.1227
     18 C         137.8339  141.3336  162.1201 C.ar    1  UNL1        0.0668
     19 C         137.6922  140.1419  161.2203 C.ar    1  UNL1        0.0035
     20 C         138.3430  140.1409  159.8689 C.ar    1  UNL1        0.0001
     21 C         139.1355  141.3317  159.4172 C.ar    1  UNL1        0.0063
     22 C         139.2772  142.5234  160.3170 C.ar    1  UNL1        0.0750
     23 C         138.6264  142.5243  161.6685 C.ar    1  UNL1        0.2876
     24 N         138.7681  143.7161  162.5683 N.pl3   1  UNL1        0.0806
     25 O         139.8355  143.7376  163.6219 O.2     1  UNL1        0.0415
     26 O         137.8423  144.8863  162.4145 O.co2   1  UNL1       -0.5760
@<TRIPOS>UNITY_ATOM_ATTR
24 1
charge 1
26 1
charge -1
@<TRIPOS>BOND
     1     5     6    1
     2     6     7   ar
     3     7     8   ar
     4     8     9   ar
     5     9    10   ar
     6    10    11   ar
     7    11     1    1
     8     1     2    2
     9     1     3   am
    10     3    17    1
    11    17    18    1
    12    18    19   ar
    13    19    20   ar
    14    20    21   ar
    15    21    22   ar
    16    22    23   ar
    17    23    24    1
    18    24    25    2
    19    24    26    1
    20    11    12   ar
    21    12    13   ar
    22    13    14   ar
    23    14     6   ar
    24    13     8   ar
    25    23    18   ar
    26     5    15    1
    27     5    16    1
    28     3     4    1
@<TRIPOS>MOLECULE
*****
 26 28 0 0 0
SMALL
GASTEIGER

@<TRIPOS>ATOM
      1 C         140.1318  139.0163  166.1361 C.2     1  UNL1        0.2461
      2 O         138.7462  138.5883  165.7528 O.2     1  UNL1       -0.2701
      3 N         141.3074  138.5720  165.3173 N.am    1  UNL1       -0.2967
      4 H         142.2168  138.8529  165.5688 H       1  UNL1        0.1501
      5 N         143.4855  143.9723  171.2168 N.pl3   1  UNL1       -0.3375
      6 C         142.6238  143.0291  170.4307 C.ar    1  UNL1        0.1567
      7 N         141.2496  142.5644  170.8122 N.ar    1  UNL1       -0.2245
      8 C         140.7616  141.6331  169.7424 C.ar    1  UNL1        0.0892
      9 C         139.4790  140.8718  169.5830 C.ar    1  UNL1        0.0198
     10 C         139.2691  139.9995  168.3809 C.ar    1  UNL1        0.0061
     11 C         140.3418  139.8886  167.3382 C.ar    1  UNL1        0.0540
     12 C         141.6243  140.6500  167.4976 C.ar    1  UNL1        0.0126
     13 C         141.8342  141.5222  168.6997 C.ar    1  UNL1        0.0498
     14 S         142.9851  142.3850  169.1251 S.2     1  UNL1       -0.0520
     15 H         143.1586  144.3449  172.0674 H       1  UNL1        0.1442
     16 H         144.3780  144.2188  170.8821 H       1  UNL1        0.1442
     17 C         141.0975  137.6997  164.1151 C.3     1  UNL1        0.1227
     18 C         141.5316  138.1733  162.7598 C.ar    1  UNL1        0.0668
     19 C         142.9511  137.9776  162.3160 C.ar    1  UNL1        0.0035
     20 C         143.3852  138.4512  160.9606 C.ar    1  UNL1        0.0001
     21 C         142.4000  139.1206  160.0489 C.ar    1  UNL1        0.0063
     22 C         140.9805  139.3164  160.4926 C.ar    1  UNL1        0.0750
     23 C         140.5464  138.8427  161.8481 C.ar    1  UNL1        0.2876
     24 N         139.1270  139.0384  162.2919 N.pl3   1  UNL1        0.0806
     25 O         138.7176  140.3218  162.9517 O.2     1  UNL1        0.0415
     26 O         138.1168  137.9508  162.0757 O.co2   1  UNL1       -0.5760
@<TRIPOS>UNITY_ATOM_ATTR
24 1
charge 1
26 1
charge -1
@<TRIPOS>BOND
     1     5     6    1
     2     6     7   ar
     3     7     8   ar
     4     8     9   ar
     5     9    10   ar
     6    10    11   ar
     7    11     1    1
     8     1     2    2
     9     1     3   am
    10     3    17    1
    11    17    18    1
    12    18    19   ar
    13    19    20   ar
    14    20    21   ar
    15    21    22   ar
    16    22    23   ar
    17    23    24    1
    18    24    25    2
    19    24    26    1
    20    11    12   ar
    21    12    13   ar
    22    13    14   ar
    23    14     6   ar
    24    13     8   ar
    25    23    18   ar
    26     5    15    1
    27     5    16    1
    28     3     4    1
@<TRIPOS>MOLECULE
*****
 26 28 0 0 0
SMALL
GASTEIGER

@<TRIPOS>ATOM
      1 C         139.4155  139.0800  165.6665 C.2     1  UNL1        0.2461
      2 O         138.2518  138.3921  166.3164 O.2     1  UNL1       -0.2701
      3 N         140.2860  140.0010  166.4690 N.am    1  UNL1       -0.2967
      4 H         141.0498  140.4525  166.0424 H       1  UNL1        0.1501
      5 N         143.2844  138.6599  158.8490 N.pl3   1  UNL1       -0.3375
      6 C         142.3204  138.6464  159.9981 C.ar    1  UNL1        0.1567
      7 N         140.8772  138.2424  159.9335 N.ar    1  UNL1       -0.2245
      8 C         140.2951  138.3809  161.3090 C.ar    1  UNL1        0.0892
      9 C         138.9185  138.1244  161.8468 C.ar    1  UNL1        0.0198
     10 C         138.6254  138.3575  163.2993 C.ar    1  UNL1        0.0061
     11 C         139.7087  138.8470  164.2140 C.ar    1  UNL1        0.0540
     12 C         141.0853  139.1034  163.6762 C.ar    1  UNL1        0.0126
     13 C         141.3785  138.8704  162.2237 C.ar    1  UNL1        0.0498
     14 S         142.6301  139.0345  161.4135 S.2     1  UNL1       -0.0520
     15 H         142.9850  138.3861  157.9520 H       1  UNL1        0.1442
     16 H         144.2166  138.9426  158.9918 H       1  UNL1        0.1442
     17 C         139.9927  140.2340  167.9215 C.3     1  UNL1        0.1227
     18 C         140.8604  141.1586  168.7229 C.ar    1  UNL1        0.0668
     19 C         140.3654  142.5282  169.0825 C.ar    1  UNL1        0.0035
     20 C         141.2331  143.4528  169.8838 C.ar    1  UNL1        0.0001
     21 C         142.5958  143.0079  170.3256 C.ar    1  UNL1        0.0063
     22 C         143.0908  141.6383  169.9661 C.ar    1  UNL1        0.0750
     23 C         142.2230  140.7137  169.1647 C.ar    1  UNL1        0.2876
     24 N         142.7180  139.3441  168.8051 N.pl3   1  UNL1        0.0806
     25 O         143.0352  139.0122  167.3771 O.2     1  UNL1        0.0415
     26 O         142.8956  138.3064  169.8736 O.co2   1  UNL1       -0.5760
@<TRIPOS>UNITY_ATOM_ATTR
24 1
charge 1
26 1
charge -1
@<TRIPOS>BOND
     1     5     6    1
     2     6     7   ar
     3     7     8   ar
     4     8     9   ar
     5     9    10   ar
     6    10    11   ar
     7    11     1    1
     8     1     2    2
     9     1     3   am
    10     3    17    1
    11    17    18    1
    12    18    19   ar
    13    19    20   ar
    14    20    21   ar
    15    21    22   ar
    16    22    23   ar
    17    23    24    1
    18    24    25    2
    19    24    26    1
    20    11    12   ar
    21    12    13   ar
    22    13    14   ar
    23    14     6   ar
    24    13     8   ar
    25    23    18   ar
    26     5    15    1
    27     5    16    1
    28     3     4    1
