@<TRIPOS>MOLECULE
*****
 33 37 0 0 0
SMALL
GASTEIGER

@<TRIPOS>ATOM
      1 N         138.4767  139.5009  164.1897 N.am    1  UNL1       -0.2473
      2 C         139.6357  138.9986  163.3805 C.2     1  UNL1        0.3407
      3 O         140.8398  138.4280  164.0690 O.2     1  UNL1       -0.2473
      4 N         139.5902  139.0671  161.8827 N.ar    1  UNL1       -0.1819
      5 N         138.4598  139.6085  161.0587 N.ar    1  UNL1       -0.1599
      6 C         138.8382  139.4822  159.6128 C.ar    1  UNL1        0.1222
      7 C         140.2026  138.8627  159.5431 C.ar    1  UNL1        0.0418
      8 C         141.0817  138.4992  158.3834 C.ar    1  UNL1        0.0407
      9 C         142.4257  137.8791  158.6267 C.ar    1  UNL1        0.1473
     10 C         142.8905  137.6225  160.0296 C.ar    1  UNL1        0.0391
     11 C         142.0113  137.9861  161.1893 C.ar    1  UNL1        0.0225
     12 C         140.6674  138.6062  160.9460 C.ar    1  UNL1        0.0889
     13 H         137.6863  139.8754  163.7378 H       1  UNL1        0.1582
     14 C         139.1799  139.7928  167.9957 C.ar    1  UNL1        0.1549
     15 C         139.5000  140.1458  166.5734 C.ar    1  UNL1        0.0734
     16 C         138.5221  139.4324  165.6875 C.ar    1  UNL1        0.1773
     17 N         137.5977  138.6385  166.5622 N.ar    1  UNL1       -0.0620
     18 O         138.0043  138.8613  167.9888 O.2     1  UNL1       -0.3565
     19 C         138.6199  140.2895  169.9806 C.3     1  UNL1        0.0076
     20 C         139.9077  140.2849  169.2115 C.3     1  UNL1        0.0539
     21 C         141.1956  140.2804  168.4423 C.3     1  UNL1        0.0076
     22 C         140.6356  140.7771  170.4272 C.3     1  UNL1        0.0076
     23 O         143.3049  137.5154  157.4670 O.3     1  UNL1       -0.4363
     24 C         142.8296  136.5229  156.4477 C.ar    1  UNL1        0.2295
     25 N         142.2990  136.9990  155.1279 N.ar    1  UNL1       -0.1893
     26 C         141.8236  136.0065  154.1086 C.ar    1  UNL1        0.2012
     27 N         141.8789  134.5379  154.4092 N.ar    1  UNL1       -0.2270
     28 C         142.4095  134.0619  155.7289 C.ar    1  UNL1        0.0785
     29 C         142.8849  135.0544  156.7482 C.ar    1  UNL1        0.0621
     30 C         143.3535  134.2933  157.9529 C.3     1  UNL1        0.1019
     31 N         143.1678  132.8304  157.6782 N.3     1  UNL1       -0.2886
     32 C         142.5844  132.6874  156.3037 C.3     1  UNL1        0.1153
     33 H         142.5333  132.4266  158.3672 H       1  UNL1        0.1239
@<TRIPOS>BOND
     1    19    20    1
     2    20    21    1
     3    20    22    1
     4    20    14    1
     5    14    15   ar
     6    15    16   ar
     7    16     1    1
     8     1     2   am
     9     2     3    2
    10     2     4   am
    11     4     5   ar
    12     5     6   ar
    13     6     7   ar
    14     7     8   ar
    15     8     9   ar
    16     9    23    1
    17    23    24    1
    18    24    25   ar
    19    25    26   ar
    20    26    27   ar
    21    27    28   ar
    22    28    29   ar
    23    29    30    1
    24    30    31    1
    25    31    32    1
    26     9    10   ar
    27    10    11   ar
    28    11    12   ar
    29    16    17   ar
    30    17    18   ar
    31    18    14   ar
    32    12     4   ar
    33    12     7   ar
    34    29    24   ar
    35    32    28    1
    36     1    13    1
    37    31    33    1
@<TRIPOS>MOLECULE
*****
 33 37 0 0 0
SMALL
GASTEIGER

@<TRIPOS>ATOM
      1 N         138.4866  139.4670  164.1731 N.am    1  UNL1       -0.2473
      2 C         139.6479  138.9601  163.3702 C.2     1  UNL1        0.3407
      3 O         140.8523  138.3985  164.0659 O.2     1  UNL1       -0.2473
      4 N         139.6048  139.0148  161.8719 N.ar    1  UNL1       -0.1819
      5 N         138.4744  139.5461  161.0412 N.ar    1  UNL1       -0.1599
      6 C         138.8554  139.4075  159.5971 C.ar    1  UNL1        0.1222
      7 C         140.2213  138.7906  159.5352 C.ar    1  UNL1        0.0418
      8 C         141.1031  138.4185  158.3803 C.ar    1  UNL1        0.0407
      9 C         142.4481  137.8038  158.6313 C.ar    1  UNL1        0.1473
     10 C         142.9112  137.5611  160.0372 C.ar    1  UNL1        0.0391
     11 C         142.0294  137.9331  161.1921 C.ar    1  UNL1        0.0225
     12 C         140.6844  138.5479  160.9411 C.ar    1  UNL1        0.0889
     13 H         137.6960  139.8356  163.7166 H       1  UNL1        0.1582
     14 C         139.1844  139.7934  167.9773 C.ar    1  UNL1        0.1549
     15 C         139.5068  140.1331  166.5522 C.ar    1  UNL1        0.0734
     16 C         138.5298  139.4122  165.6715 C.ar    1  UNL1        0.1773
     17 N         137.6035  138.6270  166.5521 N.ar    1  UNL1       -0.0620
     18 O         138.0081  138.8626  167.9771 O.2     1  UNL1       -0.3565
     19 C         141.1903  140.3331  168.4076 C.3     1  UNL1        0.0076
     20 C         139.9108  140.2962  169.1895 C.3     1  UNL1        0.0539
     21 C         138.6312  140.2592  169.9715 C.3     1  UNL1        0.0076
     22 C         140.6370  140.7989  170.4018 C.3     1  UNL1        0.0076
     23 O         143.3300  137.4316  157.4763 O.3     1  UNL1       -0.4363
     24 C         143.0634  136.1737  156.7040 C.ar    1  UNL1        0.2295
     25 N         143.1579  134.8408  157.3857 N.ar    1  UNL1       -0.1893
     26 C         142.8913  133.5829  156.6133 C.ar    1  UNL1        0.2012
     27 N         142.5303  133.6578  155.1593 N.ar    1  UNL1       -0.2270
     28 C         142.4359  134.9906  154.4777 C.ar    1  UNL1        0.0785
     29 C         142.7024  136.2486  155.2500 C.ar    1  UNL1        0.0621
     30 C         142.5347  137.4102  154.3160 C.3     1  UNL1        0.1019
     31 N         142.1645  136.8703  152.9664 N.3     1  UNL1       -0.2886
     32 C         142.1034  135.3749  153.0664 C.3     1  UNL1        0.1153
     33 H         142.8677  137.1429  152.2797 H       1  UNL1        0.1239
@<TRIPOS>BOND
     1    19    20    1
     2    20    21    1
     3    20    22    1
     4    20    14    1
     5    14    15   ar
     6    15    16   ar
     7    16     1    1
     8     1     2   am
     9     2     3    2
    10     2     4   am
    11     4     5   ar
    12     5     6   ar
    13     6     7   ar
    14     7     8   ar
    15     8     9   ar
    16     9    23    1
    17    23    24    1
    18    24    25   ar
    19    25    26   ar
    20    26    27   ar
    21    27    28   ar
    22    28    29   ar
    23    29    30    1
    24    30    31    1
    25    31    32    1
    26     9    10   ar
    27    10    11   ar
    28    11    12   ar
    29    16    17   ar
    30    17    18   ar
    31    18    14   ar
    32    12     4   ar
    33    12     7   ar
    34    29    24   ar
    35    32    28    1
    36     1    13    1
    37    31    33    1
@<TRIPOS>MOLECULE
*****
 33 37 0 0 0
SMALL
GASTEIGER

@<TRIPOS>ATOM
      1 N         143.1840  138.4711  158.8396 N.am    1  UNL1       -0.2473
      2 C         142.8073  138.2839  160.2795 C.2     1  UNL1        0.3407
      3 O         141.7987  137.2414  160.6614 O.2     1  UNL1       -0.2473
      4 N         143.4393  139.1392  161.3374 N.ar    1  UNL1       -0.1819
      5 N         144.4578  140.2162  161.1082 N.ar    1  UNL1       -0.1599
      6 C         144.8116  140.8102  162.4394 C.ar    1  UNL1        0.1222
      7 C         144.0118  140.1003  163.4912 C.ar    1  UNL1        0.0418
      8 C         143.9463  140.2609  164.9811 C.ar    1  UNL1        0.0407
      9 C         143.0326  139.3886  165.7899 C.ar    1  UNL1        0.1473
     10 C         142.1844  138.3558  165.1088 C.ar    1  UNL1        0.0391
     11 C         142.2499  138.1952  163.6189 C.ar    1  UNL1        0.0225
     12 C         143.1636  139.0675  162.8101 C.ar    1  UNL1        0.0889
     13 H         143.8460  139.1553  158.5889 H       1  UNL1        0.1582
     14 C         142.0675  135.7507  156.3061 C.ar    1  UNL1        0.1549
     15 C         142.9701  136.2250  157.4063 C.ar    1  UNL1        0.0734
     16 C         142.5520  137.6158  157.7817 C.ar    1  UNL1        0.1773
     17 N         141.3910  138.0011  156.9136 N.ar    1  UNL1       -0.0620
     18 O         141.0916  136.8484  156.0016 O.2     1  UNL1       -0.3565
     19 C         142.9966  133.8931  156.7374 C.3     1  UNL1        0.0076
     20 C         142.1299  134.4136  155.6293 C.3     1  UNL1        0.0539
     21 C         141.2631  134.9342  154.5211 C.3     1  UNL1        0.0076
     22 C         142.1922  133.0765  154.9524 C.3     1  UNL1        0.0076
     23 O         142.9670  139.5491  167.2799 O.3     1  UNL1       -0.4363
     24 C         142.1399  140.6471  167.8803 C.ar    1  UNL1        0.2295
     25 N         141.3764  141.5830  166.9907 N.ar    1  UNL1       -0.1893
     26 C         140.5494  142.6809  167.5910 C.ar    1  UNL1        0.2012
     27 N         140.4858  142.8430  169.0810 N.ar    1  UNL1       -0.2270
     28 C         141.2493  141.9072  169.9704 C.ar    1  UNL1        0.0785
     29 C         142.0763  140.8092  169.3701 C.ar    1  UNL1        0.0621
     30 C         142.7162  140.0450  170.4911 C.3     1  UNL1        0.1019
     31 N         142.2846  140.6707  171.7843 N.3     1  UNL1       -0.2886
     32 C         141.3780  141.8216  171.4625 C.3     1  UNL1        0.1153
     33 H         143.1009  141.0057  172.2961 H       1  UNL1        0.1239
@<TRIPOS>BOND
     1    19    20    1
     2    20    21    1
     3    20    22    1
     4    20    14    1
     5    14    15   ar
     6    15    16   ar
     7    16     1    1
     8     1     2   am
     9     2     3    2
    10     2     4   am
    11     4     5   ar
    12     5     6   ar
    13     6     7   ar
    14     7     8   ar
    15     8     9   ar
    16     9    23    1
    17    23    24    1
    18    24    25   ar
    19    25    26   ar
    20    26    27   ar
    21    27    28   ar
    22    28    29   ar
    23    29    30    1
    24    30    31    1
    25    31    32    1
    26     9    10   ar
    27    10    11   ar
    28    11    12   ar
    29    16    17   ar
    30    17    18   ar
    31    18    14   ar
    32    12     4   ar
    33    12     7   ar
    34    29    24   ar
    35    32    28    1
    36     1    13    1
    37    31    33    1
@<TRIPOS>MOLECULE
*****
 33 37 0 0 0
SMALL
GASTEIGER

@<TRIPOS>ATOM
      1 N         140.0870  145.3448  160.2690 N.am    1  UNL1       -0.2473
      2 C         140.5424  144.1832  161.1019 C.2     1  UNL1        0.3407
      3 O         141.6214  143.2736  160.5940 O.2     1  UNL1       -0.2473
      4 N         139.9187  143.9315  162.4427 N.ar    1  UNL1       -0.1819
      5 N         138.8353  144.7510  163.0790 N.ar    1  UNL1       -0.1599
      6 C         138.5159  144.1420  164.4120 C.ar    1  UNL1        0.1222
      7 C         139.4018  142.9462  164.5997 C.ar    1  UNL1        0.0418
      8 C         139.5311  141.9590  165.7216 C.ar    1  UNL1        0.0407
      9 C         140.5273  140.8417  165.6263 C.ar    1  UNL1        0.1473
     10 C         141.3943  140.7116  164.4091 C.ar    1  UNL1        0.0391
     11 C         141.2650  141.6988  163.2873 C.ar    1  UNL1        0.0225
     12 C         140.2688  142.8161  163.3825 C.ar    1  UNL1        0.0889
     13 H         139.3788  145.9419  160.6024 H       1  UNL1        0.1582
     14 C         140.9894  146.0025  156.5517 C.ar    1  UNL1        0.1549
     15 C         139.9752  145.7746  157.6332 C.ar    1  UNL1        0.0734
     16 C         140.7108  145.5965  158.9283 C.ar    1  UNL1        0.1773
     17 N         142.1795  145.7143  158.6473 N.ar    1  UNL1       -0.0620
     18 O         142.3516  145.9652  157.1785 O.2     1  UNL1       -0.3565
     19 C         141.9427  145.4851  154.7287 C.3     1  UNL1        0.0076
     20 C         140.6932  146.2280  155.0986 C.3     1  UNL1        0.0539
     21 C         139.4437  146.9709  155.4687 C.3     1  UNL1        0.0076
     22 C         140.3971  146.4536  153.6456 C.3     1  UNL1        0.0076
     23 O         140.6566  139.8544  166.7482 O.3     1  UNL1       -0.4363
     24 C         140.4940  140.3079  168.1688 C.ar    1  UNL1        0.2295
     25 N         139.3093  139.8550  168.9697 N.ar    1  UNL1       -0.1893
     26 C         139.1467  140.3084  170.3902 C.ar    1  UNL1        0.2012
     27 N         140.1688  141.2149  171.0098 N.ar    1  UNL1       -0.2270
     28 C         141.3534  141.6678  170.2089 C.ar    1  UNL1        0.0785
     29 C         141.5160  141.2143  168.7884 C.ar    1  UNL1        0.0621
     30 C         142.7779  141.8206  168.2498 C.3     1  UNL1        0.1019
     31 N         143.3953  142.6488  169.3375 N.3     1  UNL1       -0.2886
     32 C         142.5148  142.5543  170.5483 C.3     1  UNL1        0.1153
     33 H         143.4652  143.6205  169.0353 H       1  UNL1        0.1239
@<TRIPOS>BOND
     1    19    20    1
     2    20    21    1
     3    20    22    1
     4    20    14    1
     5    14    15   ar
     6    15    16   ar
     7    16     1    1
     8     1     2   am
     9     2     3    2
    10     2     4   am
    11     4     5   ar
    12     5     6   ar
    13     6     7   ar
    14     7     8   ar
    15     8     9   ar
    16     9    23    1
    17    23    24    1
    18    24    25   ar
    19    25    26   ar
    20    26    27   ar
    21    27    28   ar
    22    28    29   ar
    23    29    30    1
    24    30    31    1
    25    31    32    1
    26     9    10   ar
    27    10    11   ar
    28    11    12   ar
    29    16    17   ar
    30    17    18   ar
    31    18    14   ar
    32    12     4   ar
    33    12     7   ar
    34    29    24   ar
    35    32    28    1
    36     1    13    1
    37    31    33    1
@<TRIPOS>MOLECULE
*****
 33 37 0 0 0
SMALL
GASTEIGER

@<TRIPOS>ATOM
      1 N         138.4737  142.8897  158.7360 N.am    1  UNL1       -0.2473
      2 C         138.5009  142.5107  160.1871 C.2     1  UNL1        0.3407
      3 O         137.8970  141.2126  160.6346 O.2     1  UNL1       -0.2473
      4 N         139.1318  143.4298  161.1906 N.ar    1  UNL1       -0.1819
      5 N         139.7721  144.7534  160.8937 N.ar    1  UNL1       -0.1599
      6 C         140.2693  145.3283  162.1869 C.ar    1  UNL1        0.1222
      7 C         139.9364  144.3600  163.2830 C.ar    1  UNL1        0.0418
      8 C         140.1825  144.3951  164.7622 C.ar    1  UNL1        0.0407
      9 C         139.7257  143.2569  165.6258 C.ar    1  UNL1        0.1473
     10 C         139.0227  142.0836  165.0101 C.ar    1  UNL1        0.0391
     11 C         138.7765  142.0484  163.5308 C.ar    1  UNL1        0.0225
     12 C         139.2334  143.1867  162.6673 C.ar    1  UNL1        0.0889
     13 H         138.8700  143.7417  158.4422 H       1  UNL1        0.1582
     14 C         136.5483  141.1442  155.8530 C.ar    1  UNL1        0.1549
     15 C         136.9486  142.3817  156.6003 C.ar    1  UNL1        0.0734
     16 C         137.8427  141.9706  157.7324 C.ar    1  UNL1        0.1773
     17 N         137.9950  140.4791  157.6849 N.ar    1  UNL1       -0.0620
     18 O         137.1950  139.9684  156.5233 O.2     1  UNL1       -0.3565
     19 C         135.2155  139.7116  155.0338 C.3     1  UNL1        0.0076
     20 C         135.6577  141.0917  154.6472 C.3     1  UNL1        0.0539
     21 C         136.1001  142.4720  154.2605 C.3     1  UNL1        0.0076
     22 C         134.7672  141.0393  153.4413 C.3     1  UNL1        0.0076
     23 O         139.9718  143.2920  167.1051 O.3     1  UNL1       -0.4363
     24 C         140.8576  142.2629  167.7426 C.ar    1  UNL1        0.2295
     25 N         141.7508  141.4107  166.8905 N.ar    1  UNL1       -0.1893
     26 C         142.6366  140.3816  167.5280 C.ar    1  UNL1        0.2012
     27 N         142.6293  140.2049  169.0176 N.ar    1  UNL1       -0.2270
     28 C         141.7362  141.0572  169.8696 C.ar    1  UNL1        0.0785
     29 C         140.8504  142.0862  169.2321 C.ar    1  UNL1        0.0621
     30 C         140.0822  142.7751  170.3208 C.3     1  UNL1        0.1019
     31 N         140.4933  142.1719  171.6312 N.3     1  UNL1       -0.2886
     32 C         141.5155  141.1102  171.3523 C.3     1  UNL1        0.1153
     33 H         139.6823  141.7591  172.0919 H       1  UNL1        0.1239
@<TRIPOS>BOND
     1    19    20    1
     2    20    21    1
     3    20    22    1
     4    20    14    1
     5    14    15   ar
     6    15    16   ar
     7    16     1    1
     8     1     2   am
     9     2     3    2
    10     2     4   am
    11     4     5   ar
    12     5     6   ar
    13     6     7   ar
    14     7     8   ar
    15     8     9   ar
    16     9    23    1
    17    23    24    1
    18    24    25   ar
    19    25    26   ar
    20    26    27   ar
    21    27    28   ar
    22    28    29   ar
    23    29    30    1
    24    30    31    1
    25    31    32    1
    26     9    10   ar
    27    10    11   ar
    28    11    12   ar
    29    16    17   ar
    30    17    18   ar
    31    18    14   ar
    32    12     4   ar
    33    12     7   ar
    34    29    24   ar
    35    32    28    1
    36     1    13    1
    37    31    33    1
@<TRIPOS>MOLECULE
*****
 33 37 0 0 0
SMALL
GASTEIGER

@<TRIPOS>ATOM
      1 N         138.4144  140.6031  158.3819 N.am    1  UNL1       -0.2473
      2 C         139.5598  139.6499  158.2087 C.2     1  UNL1        0.3407
      3 O         140.7201  139.6915  159.1582 O.2     1  UNL1       -0.2473
      4 N         139.5445  138.6553  157.0860 N.ar    1  UNL1       -0.1819
      5 N         138.4586  138.4965  156.0635 N.ar    1  UNL1       -0.1599
      6 C         138.8556  137.3879  155.1342 C.ar    1  UNL1        0.1222
      7 C         140.1868  136.8616  155.5824 C.ar    1  UNL1        0.0418
      8 C         141.0662  135.7704  155.0480 C.ar    1  UNL1        0.0407
      9 C         142.3715  135.4624  155.7198 C.ar    1  UNL1        0.1473
     10 C         142.7973  136.2457  156.9261 C.ar    1  UNL1        0.0391
     11 C         141.9179  137.3370  157.4606 C.ar    1  UNL1        0.0225
     12 C         140.6126  137.6449  156.7887 C.ar    1  UNL1        0.0889
     13 H         137.6528  140.5758  157.7587 H       1  UNL1        0.1582
     14 C         138.2204  142.5960  161.7070 C.ar    1  UNL1        0.1549
     15 C         138.0621  141.3212  160.9325 C.ar    1  UNL1        0.0734
     16 C         138.4296  141.5977  159.5047 C.ar    1  UNL1        0.1773
     17 N         138.8150  143.0433  159.3968 N.ar    1  UNL1       -0.0620
     18 O         138.6857  143.6603  160.7578 O.2     1  UNL1       -0.3565
     19 C         137.8368  144.2563  162.9704 C.3     1  UNL1        0.0076
     20 C         137.9592  142.7751  163.1731 C.3     1  UNL1        0.0539
     21 C         138.0815  141.2938  163.3758 C.3     1  UNL1        0.0076
     22 C         137.6980  142.9541  164.6393 C.3     1  UNL1        0.0076
     23 O         143.2510  134.3711  155.1854 O.3     1  UNL1       -0.4363
     24 C         142.8497  132.9353  155.3517 C.ar    1  UNL1        0.2295
     25 N         141.8066  132.3393  154.4534 N.ar    1  UNL1       -0.1893
     26 C         141.4053  130.9036  154.6197 C.ar    1  UNL1        0.2012
     27 N         142.0470  130.0639  155.6843 N.ar    1  UNL1       -0.2270
     28 C         143.0900  130.6600  156.5824 C.ar    1  UNL1        0.0785
     29 C         143.4914  132.0957  156.4162 C.ar    1  UNL1        0.0621
     30 C         144.5405  132.4055  157.4425 C.3     1  UNL1        0.1019
     31 N         144.7876  131.1614  158.2431 N.3     1  UNL1       -0.2886
     32 C         143.8911  130.0826  157.7115 C.3     1  UNL1        0.1153
     33 H         144.5759  131.3343  159.2258 H       1  UNL1        0.1239
@<TRIPOS>BOND
     1    19    20    1
     2    20    21    1
     3    20    22    1
     4    20    14    1
     5    14    15   ar
     6    15    16   ar
     7    16     1    1
     8     1     2   am
     9     2     3    2
    10     2     4   am
    11     4     5   ar
    12     5     6   ar
    13     6     7   ar
    14     7     8   ar
    15     8     9   ar
    16     9    23    1
    17    23    24    1
    18    24    25   ar
    19    25    26   ar
    20    26    27   ar
    21    27    28   ar
    22    28    29   ar
    23    29    30    1
    24    30    31    1
    25    31    32    1
    26     9    10   ar
    27    10    11   ar
    28    11    12   ar
    29    16    17   ar
    30    17    18   ar
    31    18    14   ar
    32    12     4   ar
    33    12     7   ar
    34    29    24   ar
    35    32    28    1
    36     1    13    1
    37    31    33    1
@<TRIPOS>MOLECULE
*****
 33 37 0 0 0
SMALL
GASTEIGER

@<TRIPOS>ATOM
      1 N         140.7427  142.9125  159.2806 N.am    1  UNL1       -0.2473
      2 C         141.0956  141.4877  158.9712 C.2     1  UNL1        0.3407
      3 O         140.5279  140.3768  159.8039 O.2     1  UNL1       -0.2473
      4 N         142.0161  141.1741  157.8292 N.ar    1  UNL1       -0.1819
      5 N         142.6575  142.1742  156.9135 N.ar    1  UNL1       -0.1599
      6 C         143.4946  141.4234  155.9207 C.ar    1  UNL1        0.1222
      7 C         143.3707  139.9594  156.2228 C.ar    1  UNL1        0.0418
      8 C         143.9718  138.7467  155.5763 C.ar    1  UNL1        0.0407
      9 C         143.6591  137.3800  156.1093 C.ar    1  UNL1        0.1473
     10 C         142.7453  137.2259  157.2888 C.ar    1  UNL1        0.0391
     11 C         142.1442  138.4385  157.9353 C.ar    1  UNL1        0.0225
     12 C         142.4569  139.8053  157.4024 C.ar    1  UNL1        0.0889
     13 H         141.1152  143.6417  158.7341 H       1  UNL1        0.1582
     14 C         138.9951  143.8997  162.6028 C.ar    1  UNL1        0.1549
     15 C         140.2348  143.7195  161.7778 C.ar    1  UNL1        0.0734
     16 C         139.8222  143.2261  160.4227 C.ar    1  UNL1        0.1773
     17 N         138.3274  143.1014  160.4101 N.ar    1  UNL1       -0.0620
     18 O         137.8163  143.5177  161.7575 O.2     1  UNL1       -0.3565
     19 C         137.5301  143.8881  164.1369 C.3     1  UNL1        0.0076
     20 C         138.9433  144.3780  164.0235 C.3     1  UNL1        0.0539
     21 C         140.3565  144.8679  163.9101 C.3     1  UNL1        0.0076
     22 C         138.8915  144.8563  165.4442 C.3     1  UNL1        0.0076
     23 O         144.2602  136.1672  155.4627 O.3     1  UNL1       -0.4363
     24 C         143.3961  134.9854  155.1360 C.ar    1  UNL1        0.2295
     25 N         142.5036  135.0193  153.9308 N.ar    1  UNL1       -0.1893
     26 C         141.6395  133.8375  153.6041 C.ar    1  UNL1        0.2012
     27 N         141.6678  132.6219  154.4825 N.ar    1  UNL1       -0.2270
     28 C         142.5603  132.5882  155.6877 C.ar    1  UNL1        0.0785
     29 C         143.4244  133.7699  156.0144 C.ar    1  UNL1        0.0621
     30 C         144.1970  133.4490  157.2594 C.3     1  UNL1        0.1019
     31 N         143.8104  132.0690  157.7022 N.3     1  UNL1       -0.2886
     32 C         142.7989  131.5370  156.7308 C.3     1  UNL1        0.1153
     33 H         143.4057  132.1063  158.6377 H       1  UNL1        0.1239
@<TRIPOS>BOND
     1    19    20    1
     2    20    21    1
     3    20    22    1
     4    20    14    1
     5    14    15   ar
     6    15    16   ar
     7    16     1    1
     8     1     2   am
     9     2     3    2
    10     2     4   am
    11     4     5   ar
    12     5     6   ar
    13     6     7   ar
    14     7     8   ar
    15     8     9   ar
    16     9    23    1
    17    23    24    1
    18    24    25   ar
    19    25    26   ar
    20    26    27   ar
    21    27    28   ar
    22    28    29   ar
    23    29    30    1
    24    30    31    1
    25    31    32    1
    26     9    10   ar
    27    10    11   ar
    28    11    12   ar
    29    16    17   ar
    30    17    18   ar
    31    18    14   ar
    32    12     4   ar
    33    12     7   ar
    34    29    24   ar
    35    32    28    1
    36     1    13    1
    37    31    33    1
@<TRIPOS>MOLECULE
*****
 33 37 0 0 0
SMALL
GASTEIGER

@<TRIPOS>ATOM
      1 N         138.9802  138.9199  165.3168 N.am    1  UNL1       -0.2473
      2 C         138.9194  140.0180  164.2966 C.2     1  UNL1        0.3407
      3 O         138.8716  141.4505  164.7388 O.2     1  UNL1       -0.2473
      4 N         138.9066  139.6835  162.8345 N.ar    1  UNL1       -0.1819
      5 N         138.9498  138.3049  162.2450 N.ar    1  UNL1       -0.1599
      6 C         138.9181  138.4383  160.7513 C.ar    1  UNL1        0.1222
      7 C         138.8554  139.8993  160.4176 C.ar    1  UNL1        0.0418
      8 C         138.8039  140.6284  159.1077 C.ar    1  UNL1        0.0407
      9 C         138.7452  142.1270  159.0854 C.ar    1  UNL1        0.1473
     10 C         138.7381  142.8966  160.3729 C.ar    1  UNL1        0.0391
     11 C         138.7896  142.1676  161.6827 C.ar    1  UNL1        0.0225
     12 C         138.8483  140.6689  161.7051 C.ar    1  UNL1        0.0889
     13 H         139.0116  137.9796  165.0266 H       1  UNL1        0.1582
     14 C         139.6943  140.0733  168.9534 C.ar    1  UNL1        0.1549
     15 C         140.1032  139.9431  167.5161 C.ar    1  UNL1        0.0734
     16 C         138.9931  139.2544  166.7790 C.ar    1  UNL1        0.1773
     17 N         137.8981  138.9590  167.7607 N.ar    1  UNL1       -0.0620
     18 O         138.3315  139.4651  169.1045 O.2     1  UNL1       -0.3565
     19 C         141.4500  139.5364  170.0160 C.3     1  UNL1        0.0076
     20 C         140.5057  140.7014  170.0475 C.3     1  UNL1        0.0539
     21 C         139.5614  141.8665  170.0789 C.3     1  UNL1        0.0076
     22 C         141.3171  141.3296  171.1415 C.3     1  UNL1        0.0076
     23 O         138.6937  142.8562  157.7754 O.3     1  UNL1       -0.4363
     24 C         139.7399  143.8789  157.4448 C.ar    1  UNL1        0.2295
     25 N         141.0575  143.8630  158.1617 N.ar    1  UNL1       -0.1893
     26 C         142.1037  144.8858  157.8310 C.ar    1  UNL1        0.2012
     27 N         141.8323  145.9245  156.7834 N.ar    1  UNL1       -0.2270
     28 C         140.5149  145.9405  156.0665 C.ar    1  UNL1        0.0785
     29 C         139.4686  144.9177  156.3972 C.ar    1  UNL1        0.0621
     30 C         138.2730  145.1808  155.5306 C.3     1  UNL1        0.1019
     31 N         138.5802  146.3662  154.6642 N.3     1  UNL1       -0.2886
     32 C         139.9657  146.8357  154.9955 C.3     1  UNL1        0.1153
     33 H         137.9089  147.1120  154.8474 H       1  UNL1        0.1239
@<TRIPOS>BOND
     1    19    20    1
     2    20    21    1
     3    20    22    1
     4    20    14    1
     5    14    15   ar
     6    15    16   ar
     7    16     1    1
     8     1     2   am
     9     2     3    2
    10     2     4   am
    11     4     5   ar
    12     5     6   ar
    13     6     7   ar
    14     7     8   ar
    15     8     9   ar
    16     9    23    1
    17    23    24    1
    18    24    25   ar
    19    25    26   ar
    20    26    27   ar
    21    27    28   ar
    22    28    29   ar
    23    29    30    1
    24    30    31    1
    25    31    32    1
    26     9    10   ar
    27    10    11   ar
    28    11    12   ar
    29    16    17   ar
    30    17    18   ar
    31    18    14   ar
    32    12     4   ar
    33    12     7   ar
    34    29    24   ar
    35    32    28    1
    36     1    13    1
    37    31    33    1
@<TRIPOS>MOLECULE
*****
 33 37 0 0 0
SMALL
GASTEIGER

@<TRIPOS>ATOM
      1 N         138.9619  138.8208  165.5316 N.am    1  UNL1       -0.2473
      2 C         138.8095  139.8537  164.4545 C.2     1  UNL1        0.3407
      3 O         138.7061  141.3055  164.8169 O.2     1  UNL1       -0.2473
      4 N         138.7607  139.4347  163.0150 N.ar    1  UNL1       -0.1819
      5 N         138.8515  138.0278  162.5028 N.ar    1  UNL1       -0.1599
      6 C         138.7594  138.0726  161.0063 C.ar    1  UNL1        0.1222
      7 C         138.6117  139.5072  160.5937 C.ar    1  UNL1        0.0418
      8 C         138.4766  140.1557  159.2479 C.ar    1  UNL1        0.0407
      9 C         138.3423  141.6460  159.1436 C.ar    1  UNL1        0.1473
     10 C         138.3431  142.4878  160.3851 C.ar    1  UNL1        0.0391
     11 C         138.4782  141.8393  161.7309 C.ar    1  UNL1        0.0225
     12 C         138.6125  140.3490  161.8352 C.ar    1  UNL1        0.0889
     13 H         139.0298  137.8679  165.2937 H       1  UNL1        0.1582
     14 C         139.7575  140.1986  169.0719 C.ar    1  UNL1        0.1549
     15 C         140.1260  139.9941  167.6324 C.ar    1  UNL1        0.0734
     16 C         139.0107  139.2399  166.9710 C.ar    1  UNL1        0.1773
     17 N         137.9529  138.9783  168.0019 N.ar    1  UNL1       -0.0620
     18 O         138.4144  139.5709  169.3003 O.2     1  UNL1       -0.3565
     19 C         139.7076  142.1159  169.9784 C.3     1  UNL1        0.0076
     20 C         140.5864  140.9067  170.1022 C.3     1  UNL1        0.0539
     21 C         141.4653  139.6973  170.2261 C.3     1  UNL1        0.0076
     22 C         141.4154  141.6146  171.1325 C.3     1  UNL1        0.0076
     23 O         138.2071  142.2946  157.7978 O.3     1  UNL1       -0.4363
     24 C         138.3056  141.4648  156.5521 C.ar    1  UNL1        0.2295
     25 N         139.6124  141.3579  155.8235 N.ar    1  UNL1       -0.1893
     26 C         139.7109  140.5281  154.5778 C.ar    1  UNL1        0.2012
     27 N         138.5025  139.8052  154.0607 N.ar    1  UNL1       -0.2270
     28 C         137.1957  139.9121  154.7893 C.ar    1  UNL1        0.0785
     29 C         137.0973  140.7419  156.0350 C.ar    1  UNL1        0.0621
     30 C         135.6858  140.6601  156.5361 C.3     1  UNL1        0.1019
     31 N         134.9119  139.7797  155.6001 N.3     1  UNL1       -0.2886
     32 C         135.8451  139.3174  154.5206 C.3     1  UNL1        0.1153
     33 H         134.1403  140.3052  155.1891 H       1  UNL1        0.1239
@<TRIPOS>BOND
     1    19    20    1
     2    20    21    1
     3    20    22    1
     4    20    14    1
     5    14    15   ar
     6    15    16   ar
     7    16     1    1
     8     1     2   am
     9     2     3    2
    10     2     4   am
    11     4     5   ar
    12     5     6   ar
    13     6     7   ar
    14     7     8   ar
    15     8     9   ar
    16     9    23    1
    17    23    24    1
    18    24    25   ar
    19    25    26   ar
    20    26    27   ar
    21    27    28   ar
    22    28    29   ar
    23    29    30    1
    24    30    31    1
    25    31    32    1
    26     9    10   ar
    27    10    11   ar
    28    11    12   ar
    29    16    17   ar
    30    17    18   ar
    31    18    14   ar
    32    12     4   ar
    33    12     7   ar
    34    29    24   ar
    35    32    28    1
    36     1    13    1
    37    31    33    1
