@<TRIPOS>MOLECULE
*****
 35 39 0 0 0
SMALL
GASTEIGER

@<TRIPOS>ATOM
      1 N         137.6517  140.3580  160.0970 N.pl3   1  UNL1       -0.2802
      2 H         136.8393  140.1077  159.6004 H       1  UNL1        0.1552
      3 C         138.5930  141.3787  159.5295 C.ar    1  UNL1        0.2208
      4 N         138.2139  142.1452  158.2972 N.ar    1  UNL1       -0.2111
      5 C         139.1552  143.1660  157.7297 C.ar    1  UNL1        0.1147
      6 C         140.4755  143.4203  158.3946 C.ar    1  UNL1        0.0960
      7 CL        141.4168  144.4411  157.8272 Cl      1  UNL1       -0.0790
      8 C         140.8546  142.6537  159.6271 C.ar    1  UNL1        0.1138
      9 N         139.9133  141.6330  160.1945 N.ar    1  UNL1       -0.2111
     10 C         142.1749  142.9080  160.2920 C.ar    1  UNL1        0.1031
     11 C         143.5059  142.3864  159.8376 C.ar    1  UNL1        0.1196
     12 N         144.5496  142.8846  160.7928 N.ar    1  UNL1       -0.2248
     13 C         143.8637  143.7140  161.8376 C.ar    1  UNL1        0.1479
     14 C         144.3859  144.4580  163.0308 C.ar    1  UNL1        0.0374
     15 C         143.4404  145.2164  163.9145 C.ar    1  UNL1        0.0046
     16 C         141.9728  145.2309  163.6049 C.ar    1  UNL1        0.0191
     17 C         141.4506  144.4869  162.4117 C.ar    1  UNL1        0.0815
     18 N         142.3960  143.7285  161.5281 N.ar    1  UNL1       -0.2874
     19 C         137.6733  140.4648  162.6928 C.ar    1  UNL1        0.1517
     20 C         137.9698  139.8252  164.0169 C.ar    1  UNL1        0.0344
     21 C         138.5412  138.4393  164.0691 C.ar    1  UNL1       -0.0100
     22 C         138.8161  137.6929  162.7974 C.ar    1  UNL1       -0.0023
     23 C         138.5196  138.3325  161.4734 C.ar    1  UNL1        0.0175
     24 C         137.9482  139.7185  161.4210 C.ar    1  UNL1        0.0849
     25 C         137.9612  143.0299  162.9885 C.3     1  UNL1        0.2525
     26 O         137.1018  141.8507  162.6406 O.3     1  UNL1       -0.4702
     27 C         138.8377  137.7998  165.3931 C.3     1  UNL1        0.1117
     28 C         138.5433  138.5381  166.6652 C.2     1  UNL1        0.2302
     29 O         137.2241  138.3494  167.3538 O.2     1  UNL1       -0.2745
     30 N         139.5681  139.4651  167.2488 N.am    1  UNL1       -0.2741
     31 C         139.2737  140.2034  168.5209 C.3     1  UNL1        0.1255
     32 C         140.2985  141.1303  169.1044 C.3     1  UNL1        0.1636
     33 O         141.6177  141.3189  168.4159 O.3     1  UNL1       -0.3501
     34 C         141.9121  140.5806  167.1438 C.3     1  UNL1        0.1636
     35 C         140.8872  139.6537  166.5603 C.3     1  UNL1        0.1255
@<TRIPOS>BOND
     1    25    26    1
     2    26    19    1
     3    19    20   ar
     4    20    21   ar
     5    21    27    1
     6    27    28    1
     7    28    29    2
     8    28    30   am
     9    30    31    1
    10    31    32    1
    11    32    33    1
    12    33    34    1
    13    34    35    1
    14    21    22   ar
    15    22    23   ar
    16    23    24   ar
    17    24     1    1
    18     1     3    1
    19     3     4   ar
    20     4     5   ar
    21     5     6   ar
    22     6     7    1
    23     6     8   ar
    24     8    10    1
    25    10    11   ar
    26    11    12   ar
    27    12    13   ar
    28    13    14   ar
    29    14    15   ar
    30    15    16   ar
    31    16    17   ar
    32    17    18   ar
    33     8     9   ar
    34    24    19   ar
    35     9     3   ar
    36    35    30    1
    37    18    10   ar
    38    18    13   ar
    39     1     2    1
@<TRIPOS>MOLECULE
*****
 35 39 0 0 0
SMALL
GASTEIGER

@<TRIPOS>ATOM
      1 N         140.7505  145.7375  161.5147 N.pl3   1  UNL1       -0.2802
      2 H         140.4818  146.6790  161.6178 H       1  UNL1        0.1552
      3 C         140.7694  145.1077  160.1534 C.ar    1  UNL1        0.2208
      4 N         141.7877  145.5409  159.1408 N.ar    1  UNL1       -0.2111
      5 C         141.8066  144.9112  157.7795 C.ar    1  UNL1        0.1147
      6 C         140.8072  143.8483  157.4309 C.ar    1  UNL1        0.0960
      7 CL        140.8261  143.2186  156.0696 Cl      1  UNL1       -0.0790
      8 C         139.7889  143.4151  158.4436 C.ar    1  UNL1        0.1138
      9 N         139.7700  144.0449  159.8048 N.ar    1  UNL1       -0.2111
     10 C         138.7895  142.3523  158.0949 C.ar    1  UNL1        0.1031
     11 C         138.6387  141.0256  158.7784 C.ar    1  UNL1        0.1196
     12 N         137.5215  140.2829  158.1075 N.ar    1  UNL1       -0.2248
     13 C         136.9817  141.1506  157.0094 C.ar    1  UNL1        0.1479
     14 C         135.8779  140.9413  156.0155 C.ar    1  UNL1        0.0374
     15 C         135.5578  142.0110  155.0139 C.ar    1  UNL1        0.0046
     16 C         136.3415  143.2900  155.0062 C.ar    1  UNL1        0.0191
     17 C         137.4453  143.4992  156.0000 C.ar    1  UNL1        0.0815
     18 N         137.7654  142.4295  157.0016 N.ar    1  UNL1       -0.2874
     19 C         140.0857  144.4266  163.6571 C.ar    1  UNL1        0.1517
     20 C         140.4762  143.6219  164.8613 C.ar    1  UNL1        0.0344
     21 C         141.9220  143.3234  165.1272 C.ar    1  UNL1       -0.0100
     22 C         142.9772  143.8295  164.1890 C.ar    1  UNL1       -0.0023
     23 C         142.5867  144.6342  162.9848 C.ar    1  UNL1        0.0175
     24 C         141.1409  144.9328  162.7188 C.ar    1  UNL1        0.0849
     25 C         137.7357  143.6487  162.8681 C.3     1  UNL1        0.2525
     26 O         138.6400  144.7252  163.3911 O.3     1  UNL1       -0.4702
     27 C         142.3124  142.5187  166.3313 C.3     1  UNL1        0.1117
     28 C         141.4402  141.3892  166.7935 C.2     1  UNL1        0.2302
     29 O         141.3343  140.1388  165.9717 O.2     1  UNL1       -0.2745
     30 N         140.6740  141.5101  168.0774 N.am    1  UNL1       -0.2741
     31 C         139.8019  140.3806  168.5396 C.3     1  UNL1        0.1255
     32 C         139.0357  140.5016  169.8234 C.3     1  UNL1        0.1636
     33 O         139.1417  141.7520  170.6452 O.3     1  UNL1       -0.3501
     34 C         140.0139  142.8815  170.1830 C.3     1  UNL1        0.1636
     35 C         140.7800  142.7605  168.8991 C.3     1  UNL1        0.1255
@<TRIPOS>BOND
     1    25    26    1
     2    26    19    1
     3    19    20   ar
     4    20    21   ar
     5    21    27    1
     6    27    28    1
     7    28    29    2
     8    28    30   am
     9    30    31    1
    10    31    32    1
    11    32    33    1
    12    33    34    1
    13    34    35    1
    14    21    22   ar
    15    22    23   ar
    16    23    24   ar
    17    24     1    1
    18     1     3    1
    19     3     4   ar
    20     4     5   ar
    21     5     6   ar
    22     6     7    1
    23     6     8   ar
    24     8    10    1
    25    10    11   ar
    26    11    12   ar
    27    12    13   ar
    28    13    14   ar
    29    14    15   ar
    30    15    16   ar
    31    16    17   ar
    32    17    18   ar
    33     8     9   ar
    34    24    19   ar
    35     9     3   ar
    36    35    30    1
    37    18    10   ar
    38    18    13   ar
    39     1     2    1
@<TRIPOS>MOLECULE
*****
 35 39 0 0 0
SMALL
GASTEIGER

@<TRIPOS>ATOM
      1 N         143.7704  137.6550  161.6753 N.pl3   1  UNL1       -0.2802
      2 H         144.1437  136.7513  161.7903 H       1  UNL1        0.1552
      3 C         143.5275  138.1964  160.2977 C.ar    1  UNL1        0.2208
      4 N         144.0157  139.5672  159.9338 N.ar    1  UNL1       -0.2111
      5 C         143.7727  140.1086  158.5561 C.ar    1  UNL1        0.1147
      6 C         143.0415  139.2791  157.5425 C.ar    1  UNL1        0.0960
      7 CL        142.7986  139.8205  156.1649 Cl      1  UNL1       -0.0790
      8 C         142.5533  137.9082  157.9065 C.ar    1  UNL1        0.1138
      9 N         142.7963  137.3669  159.2841 N.ar    1  UNL1       -0.2111
     10 C         141.8221  137.0788  156.8929 C.ar    1  UNL1        0.1031
     11 C         140.4875  137.3999  156.2881 C.ar    1  UNL1        0.1196
     12 N         140.1378  136.3022  155.3275 N.ar    1  UNL1       -0.2248
     13 C         141.2563  135.3027  155.3386 C.ar    1  UNL1        0.1479
     14 C         141.4613  134.0176  154.5927 C.ar    1  UNL1        0.0374
     15 C         142.7073  133.2125  154.8143 C.ar    1  UNL1        0.0046
     16 C         143.7483  133.6924  155.7818 C.ar    1  UNL1        0.0191
     17 C         143.5433  134.9776  156.5276 C.ar    1  UNL1        0.0815
     18 N         142.2972  135.7827  156.3060 N.ar    1  UNL1       -0.2874
     19 C         142.0990  138.3734  163.5301 C.ar    1  UNL1        0.1517
     20 C         141.7732  139.2089  164.7327 C.ar    1  UNL1        0.0344
     21 C         142.7932  140.1613  165.2828 C.ar    1  UNL1       -0.0100
     22 C         144.1388  140.2783  164.6304 C.ar    1  UNL1       -0.0023
     23 C         144.4645  139.4428  163.4280 C.ar    1  UNL1        0.0175
     24 C         143.4446  138.4904  162.8778 C.ar    1  UNL1        0.0849
     25 C         140.0056  137.9210  162.0594 C.3     1  UNL1        0.2525
     26 O         141.0791  137.4209  162.9800 O.3     1  UNL1       -0.4702
     27 C         142.4674  140.9967  166.4852 C.3     1  UNL1        0.1117
     28 C         142.4310  140.3689  167.8470 C.2     1  UNL1        0.2302
     29 O         143.1010  139.0475  168.0819 O.2     1  UNL1       -0.2745
     30 N         141.7246  141.0624  168.9741 N.am    1  UNL1       -0.2741
     31 C         141.6882  140.4346  170.3359 C.3     1  UNL1        0.1255
     32 C         140.9818  141.1282  171.4628 C.3     1  UNL1        0.1636
     33 O         140.3118  142.4495  171.2279 O.3     1  UNL1       -0.3501
     34 C         140.3482  143.0773  169.8661 C.3     1  UNL1        0.1636
     35 C         141.0546  142.3837  168.7391 C.3     1  UNL1        0.1255
@<TRIPOS>BOND
     1    25    26    1
     2    26    19    1
     3    19    20   ar
     4    20    21   ar
     5    21    27    1
     6    27    28    1
     7    28    29    2
     8    28    30   am
     9    30    31    1
    10    31    32    1
    11    32    33    1
    12    33    34    1
    13    34    35    1
    14    21    22   ar
    15    22    23   ar
    16    23    24   ar
    17    24     1    1
    18     1     3    1
    19     3     4   ar
    20     4     5   ar
    21     5     6   ar
    22     6     7    1
    23     6     8   ar
    24     8    10    1
    25    10    11   ar
    26    11    12   ar
    27    12    13   ar
    28    13    14   ar
    29    14    15   ar
    30    15    16   ar
    31    16    17   ar
    32    17    18   ar
    33     8     9   ar
    34    24    19   ar
    35     9     3   ar
    36    35    30    1
    37    18    10   ar
    38    18    13   ar
    39     1     2    1
@<TRIPOS>MOLECULE
*****
 35 39 0 0 0
SMALL
GASTEIGER

@<TRIPOS>ATOM
      1 N         140.6183  145.9645  161.0583 N.pl3   1  UNL1       -0.2802
      2 H         140.6385  146.9475  161.0075 H       1  UNL1        0.1552
      3 C         140.7110  145.1466  159.8044 C.ar    1  UNL1        0.2208
      4 N         141.8484  145.3623  158.8507 N.ar    1  UNL1       -0.2111
      5 C         141.9411  144.5443  157.5967 C.ar    1  UNL1        0.1147
      6 C         140.8963  143.5108  157.2965 C.ar    1  UNL1        0.0960
      7 CL        140.9889  142.6929  156.0425 Cl      1  UNL1       -0.0790
      8 C         139.7587  143.2951  158.2503 C.ar    1  UNL1        0.1138
      9 N         139.6662  144.1131  159.5042 N.ar    1  UNL1       -0.2111
     10 C         138.7139  142.2616  157.9501 C.ar    1  UNL1        0.1031
     11 C         138.5134  140.9707  158.6872 C.ar    1  UNL1        0.1196
     12 N         137.3617  140.2488  158.0527 N.ar    1  UNL1       -0.2248
     13 C         136.8505  141.0935  156.9234 C.ar    1  UNL1        0.1479
     14 C         135.7321  140.8907  155.9448 C.ar    1  UNL1        0.0374
     15 C         135.4494  141.9319  154.9027 C.ar    1  UNL1        0.0046
     16 C         136.2851  143.1759  154.8393 C.ar    1  UNL1        0.0191
     17 C         137.4035  143.3787  155.8180 C.ar    1  UNL1        0.0815
     18 N         137.6863  142.3375  156.8600 N.ar    1  UNL1       -0.2874
     19 C         141.7091  144.7014  163.0495 C.ar    1  UNL1        0.1517
     20 C         141.5856  144.0217  164.3810 C.ar    1  UNL1        0.0344
     21 C         140.2479  143.9255  165.0528 C.ar    1  UNL1       -0.0100
     22 C         139.0337  144.5089  164.3930 C.ar    1  UNL1       -0.0023
     23 C         139.1572  145.1886  163.0616 C.ar    1  UNL1        0.0175
     24 C         140.4949  145.2849  162.3898 C.ar    1  UNL1        0.0849
     25 C         144.1936  143.9636  162.8671 C.3     1  UNL1        0.2525
     26 O         143.0469  144.7976  162.3778 O.3     1  UNL1       -0.4702
     27 C         140.1245  143.2458  166.3842 C.3     1  UNL1        0.1117
     28 C         140.4248  141.7815  166.5094 C.2     1  UNL1        0.2302
     29 O         139.7864  140.8019  165.5699 O.2     1  UNL1       -0.2745
     30 N         141.3637  141.2968  167.5742 N.am    1  UNL1       -0.2741
     31 C         141.6641  139.8325  167.6994 C.3     1  UNL1        0.1255
     32 C         142.6029  139.3479  168.7641 C.3     1  UNL1        0.1636
     33 O         143.2414  140.3275  169.7037 O.3     1  UNL1       -0.3501
     34 C         142.9410  141.7918  169.5785 C.3     1  UNL1        0.1636
     35 C         142.0021  142.2764  168.5136 C.3     1  UNL1        0.1255
@<TRIPOS>BOND
     1    25    26    1
     2    26    19    1
     3    19    20   ar
     4    20    21   ar
     5    21    27    1
     6    27    28    1
     7    28    29    2
     8    28    30   am
     9    30    31    1
    10    31    32    1
    11    32    33    1
    12    33    34    1
    13    34    35    1
    14    21    22   ar
    15    22    23   ar
    16    23    24   ar
    17    24     1    1
    18     1     3    1
    19     3     4   ar
    20     4     5   ar
    21     5     6   ar
    22     6     7    1
    23     6     8   ar
    24     8    10    1
    25    10    11   ar
    26    11    12   ar
    27    12    13   ar
    28    13    14   ar
    29    14    15   ar
    30    15    16   ar
    31    16    17   ar
    32    17    18   ar
    33     8     9   ar
    34    24    19   ar
    35     9     3   ar
    36    35    30    1
    37    18    10   ar
    38    18    13   ar
    39     1     2    1
@<TRIPOS>MOLECULE
*****
 35 39 0 0 0
SMALL
GASTEIGER

@<TRIPOS>ATOM
      1 N         143.0839  137.9308  161.2294 N.pl3   1  UNL1       -0.2802
      2 H         143.5465  137.1118  160.9388 H       1  UNL1        0.1552
      3 C         142.4339  138.8249  160.2155 C.ar    1  UNL1        0.2208
      4 N         141.8793  138.2436  158.9488 N.ar    1  UNL1       -0.2111
      5 C         141.2293  139.1378  157.9350 C.ar    1  UNL1        0.1147
      6 C         141.1339  140.6132  158.1878 C.ar    1  UNL1        0.0960
      7 CL        140.4838  141.5074  157.1739 Cl      1  UNL1       -0.0790
      8 C         141.6885  141.1946  159.4545 C.ar    1  UNL1        0.1138
      9 N         142.3384  140.3004  160.4683 N.ar    1  UNL1       -0.2111
     10 C         141.5930  142.6700  159.7074 C.ar    1  UNL1        0.1031
     11 C         142.3890  143.7365  159.0152 C.ar    1  UNL1        0.1196
     12 N         141.9727  145.0636  159.5768 N.ar    1  UNL1       -0.2248
     13 C         140.9194  144.8174  160.6160 C.ar    1  UNL1        0.1479
     14 C         140.1437  145.7491  161.4993 C.ar    1  UNL1        0.0374
     15 C         139.1333  145.2015  162.4632 C.ar    1  UNL1        0.0046
     16 C         138.8987  143.7221  162.5439 C.ar    1  UNL1        0.0191
     17 C         139.6744  142.7904  161.6606 C.ar    1  UNL1        0.0815
     18 N         140.6848  143.3381  160.6967 N.ar    1  UNL1       -0.2874
     19 C         141.8490  137.8711  163.5144 C.ar    1  UNL1        0.1517
     20 C         141.7944  138.2249  164.9712 C.ar    1  UNL1        0.0344
     21 C         142.9200  138.9919  165.5995 C.ar    1  UNL1       -0.0100
     22 C         144.1002  139.4052  164.7711 C.ar    1  UNL1       -0.0023
     23 C         144.1548  139.0515  163.3144 C.ar    1  UNL1        0.0175
     24 C         143.0292  138.2845  162.6860 C.ar    1  UNL1        0.0849
     25 C         139.5267  137.8325  162.3502 C.3     1  UNL1        0.2525
     26 O         140.7234  137.1041  162.8862 O.3     1  UNL1       -0.4702
     27 C         142.8653  139.3456  167.0561 C.3     1  UNL1        0.1117
     28 C         142.5487  140.7506  167.4753 C.2     1  UNL1        0.2302
     29 O         143.1275  141.9080  166.7168 O.2     1  UNL1       -0.2745
     30 N         141.6532  140.9982  168.6530 N.am    1  UNL1       -0.2741
     31 C         141.3366  142.4032  169.0723 C.3     1  UNL1        0.1255
     32 C         140.4412  142.6506  170.2499 C.3     1  UNL1        0.1636
     33 O         139.8623  141.4932  171.0084 O.3     1  UNL1       -0.3501
     34 C         140.1789  140.0882  170.5892 C.3     1  UNL1        0.1636
     35 C         141.0744  139.8407  169.4114 C.3     1  UNL1        0.1255
@<TRIPOS>BOND
     1    25    26    1
     2    26    19    1
     3    19    20   ar
     4    20    21   ar
     5    21    27    1
     6    27    28    1
     7    28    29    2
     8    28    30   am
     9    30    31    1
    10    31    32    1
    11    32    33    1
    12    33    34    1
    13    34    35    1
    14    21    22   ar
    15    22    23   ar
    16    23    24   ar
    17    24     1    1
    18     1     3    1
    19     3     4   ar
    20     4     5   ar
    21     5     6   ar
    22     6     7    1
    23     6     8   ar
    24     8    10    1
    25    10    11   ar
    26    11    12   ar
    27    12    13   ar
    28    13    14   ar
    29    14    15   ar
    30    15    16   ar
    31    16    17   ar
    32    17    18   ar
    33     8     9   ar
    34    24    19   ar
    35     9     3   ar
    36    35    30    1
    37    18    10   ar
    38    18    13   ar
    39     1     2    1
@<TRIPOS>MOLECULE
*****
 35 39 0 0 0
SMALL
GASTEIGER

@<TRIPOS>ATOM
      1 N         140.9496  145.5550  161.7833 N.pl3   1  UNL1       -0.2802
      2 H         141.0430  146.5338  161.8329 H       1  UNL1        0.1552
      3 C         140.4044  144.9157  160.5407 C.ar    1  UNL1        0.2208
      4 N         139.5163  143.7114  160.6447 N.ar    1  UNL1       -0.2111
      5 C         138.9711  143.0720  159.4021 C.ar    1  UNL1        0.1147
      6 C         139.3142  143.6370  158.0555 C.ar    1  UNL1        0.0960
      7 CL        138.7691  142.9977  156.8129 Cl      1  UNL1       -0.0790
      8 C         140.2024  144.8413  157.9516 C.ar    1  UNL1        0.1138
      9 N         140.7475  145.4806  159.1942 N.ar    1  UNL1       -0.2111
     10 C         140.5455  145.4063  156.6051 C.ar    1  UNL1        0.1031
     11 C         141.4749  144.7907  155.6014 C.ar    1  UNL1        0.1196
     12 N         141.5231  145.6900  154.4019 N.ar    1  UNL1       -0.2248
     13 C         140.6236  146.8614  154.6642 C.ar    1  UNL1        0.1479
     14 C         140.2767  148.0650  153.8390 C.ar    1  UNL1        0.0374
     15 C         139.3255  149.0932  154.3755 C.ar    1  UNL1        0.0046
     16 C         138.7213  148.9179  155.7372 C.ar    1  UNL1        0.0191
     17 C         139.0682  147.7143  156.5624 C.ar    1  UNL1        0.0815
     18 N         140.0194  146.6860  156.0258 N.ar    1  UNL1       -0.2874
     19 C         140.3552  144.3814  164.0238 C.ar    1  UNL1        0.1517
     20 C         140.7581  143.5295  165.1908 C.ar    1  UNL1        0.0344
     21 C         142.1581  142.9992  165.2844 C.ar    1  UNL1       -0.0100
     22 C         143.1553  143.3209  164.2110 C.ar    1  UNL1       -0.0023
     23 C         142.7524  144.1728  163.0440 C.ar    1  UNL1        0.0175
     24 C         141.3524  144.7031  162.9504 C.ar    1  UNL1        0.0849
     25 C         137.7897  143.9981  164.1689 C.3     1  UNL1        0.2525
     26 O         138.9552  144.9117  163.9302 O.3     1  UNL1       -0.4702
     27 C         142.5609  142.1473  166.4515 C.3     1  UNL1        0.1117
     28 C         141.6407  141.0717  166.9477 C.2     1  UNL1        0.2302
     29 O         141.5603  139.7605  166.2237 O.2     1  UNL1       -0.2745
     30 N         140.8009  141.3072  168.1682 N.am    1  UNL1       -0.2741
     31 C         139.8807  140.2316  168.6644 C.3     1  UNL1        0.1255
     32 C         139.0410  140.4672  169.8848 C.3     1  UNL1        0.1636
     33 O         139.1214  141.7784  170.6089 O.3     1  UNL1       -0.3501
     34 C         140.0416  142.8541  170.1126 C.3     1  UNL1        0.1636
     35 C         140.8814  142.6184  168.8922 C.3     1  UNL1        0.1255
@<TRIPOS>BOND
     1    25    26    1
     2    26    19    1
     3    19    20   ar
     4    20    21   ar
     5    21    27    1
     6    27    28    1
     7    28    29    2
     8    28    30   am
     9    30    31    1
    10    31    32    1
    11    32    33    1
    12    33    34    1
    13    34    35    1
    14    21    22   ar
    15    22    23   ar
    16    23    24   ar
    17    24     1    1
    18     1     3    1
    19     3     4   ar
    20     4     5   ar
    21     5     6   ar
    22     6     7    1
    23     6     8   ar
    24     8    10    1
    25    10    11   ar
    26    11    12   ar
    27    12    13   ar
    28    13    14   ar
    29    14    15   ar
    30    15    16   ar
    31    16    17   ar
    32    17    18   ar
    33     8     9   ar
    34    24    19   ar
    35     9     3   ar
    36    35    30    1
    37    18    10   ar
    38    18    13   ar
    39     1     2    1
@<TRIPOS>MOLECULE
*****
 35 39 0 0 0
SMALL
GASTEIGER

@<TRIPOS>ATOM
      1 N         144.3405  138.8015  161.5885 N.pl3   1  UNL1       -0.2802
      2 H         145.1439  138.2519  161.4417 H       1  UNL1        0.1552
      3 C         143.6667  139.4701  160.4270 C.ar    1  UNL1        0.2208
      4 N         143.4442  138.7127  159.1516 N.ar    1  UNL1       -0.2111
      5 C         142.7704  139.3813  157.9901 C.ar    1  UNL1        0.1147
      6 C         142.3192  140.8072  158.1041 C.ar    1  UNL1        0.0960
      7 CL        141.6454  141.4758  156.9426 Cl      1  UNL1       -0.0790
      8 C         142.5417  141.5647  159.3796 C.ar    1  UNL1        0.1138
      9 N         143.2154  140.8961  160.5410 N.ar    1  UNL1       -0.2111
     10 C         142.0905  142.9907  159.4936 C.ar    1  UNL1        0.1031
     11 C         142.4946  144.1181  158.5906 C.ar    1  UNL1        0.1196
     12 N         141.8097  145.3638  159.0695 N.ar    1  UNL1       -0.2248
     13 C         140.9824  145.0061  160.2686 C.ar    1  UNL1        0.1479
     14 C         140.0935  145.8265  161.1555 C.ar    1  UNL1        0.0374
     15 C         139.3781  145.1802  162.3046 C.ar    1  UNL1        0.0046
     16 C         139.5516  143.7135  162.5667 C.ar    1  UNL1        0.0191
     17 C         140.4405  142.8931  161.6797 C.ar    1  UNL1        0.0815
     18 N         141.1559  143.5394  160.5306 N.ar    1  UNL1       -0.2874
     19 C         144.3830  139.9933  163.8967 C.ar    1  UNL1        0.1517
     20 C         143.8326  140.1622  165.2819 C.ar    1  UNL1        0.0344
     21 C         142.6893  139.3080  165.7439 C.ar    1  UNL1       -0.0100
     22 C         142.0964  138.2851  164.8208 C.ar    1  UNL1       -0.0023
     23 C         142.6468  138.1163  163.4357 C.ar    1  UNL1        0.0175
     24 C         143.7901  138.9704  162.9736 C.ar    1  UNL1        0.0849
     25 C         145.3027  142.2990  163.1298 C.3     1  UNL1        0.2525
     26 O         145.5263  140.8474  163.4347 O.3     1  UNL1       -0.4702
     27 C         142.1390  139.4769  167.1290 C.3     1  UNL1        0.1117
     28 C         141.2206  140.6224  167.4366 C.2     1  UNL1        0.2302
     29 O         140.4578  141.2899  166.3309 O.2     1  UNL1       -0.2745
     30 N         141.0651  141.1004  168.8500 N.am    1  UNL1       -0.2741
     31 C         140.1468  142.2459  169.1576 C.3     1  UNL1        0.1255
     32 C         139.9914  142.7238  170.5708 C.3     1  UNL1        0.1636
     33 O         140.7542  142.0563  171.6765 O.3     1  UNL1       -0.3501
     34 C         141.6725  140.9108  171.3689 C.3     1  UNL1        0.1636
     35 C         141.8280  140.4329  169.9556 C.3     1  UNL1        0.1255
@<TRIPOS>BOND
     1    25    26    1
     2    26    19    1
     3    19    20   ar
     4    20    21   ar
     5    21    27    1
     6    27    28    1
     7    28    29    2
     8    28    30   am
     9    30    31    1
    10    31    32    1
    11    32    33    1
    12    33    34    1
    13    34    35    1
    14    21    22   ar
    15    22    23   ar
    16    23    24   ar
    17    24     1    1
    18     1     3    1
    19     3     4   ar
    20     4     5   ar
    21     5     6   ar
    22     6     7    1
    23     6     8   ar
    24     8    10    1
    25    10    11   ar
    26    11    12   ar
    27    12    13   ar
    28    13    14   ar
    29    14    15   ar
    30    15    16   ar
    31    16    17   ar
    32    17    18   ar
    33     8     9   ar
    34    24    19   ar
    35     9     3   ar
    36    35    30    1
    37    18    10   ar
    38    18    13   ar
    39     1     2    1
@<TRIPOS>MOLECULE
*****
 35 39 0 0 0
SMALL
GASTEIGER

@<TRIPOS>ATOM
      1 N         141.4098  145.3941  161.9565 N.pl3   1  UNL1       -0.2802
      2 H         141.0285  146.2891  162.1073 H       1  UNL1        0.1552
      3 C         141.6101  144.8902  160.5579 C.ar    1  UNL1        0.2208
      4 N         142.7479  143.9623  160.2508 N.ar    1  UNL1       -0.2111
      5 C         142.9481  143.4585  158.8522 C.ar    1  UNL1        0.1147
      6 C         142.0106  143.8825  157.7608 C.ar    1  UNL1        0.0960
      7 CL        142.2108  143.3786  156.3622 Cl      1  UNL1       -0.0790
      8 C         140.8727  144.8105  158.0679 C.ar    1  UNL1        0.1138
      9 N         140.6725  145.3143  159.4665 N.ar    1  UNL1       -0.2111
     10 C         139.9351  145.2345  156.9765 C.ar    1  UNL1        0.1031
     11 C         139.9049  146.5796  156.3134 C.ar    1  UNL1        0.1196
     12 N         138.8143  146.5642  155.2837 N.ar    1  UNL1       -0.2248
     13 C         138.1705  145.2096  155.3104 C.ar    1  UNL1        0.1479
     14 C         137.0430  144.6184  154.5172 C.ar    1  UNL1        0.0374
     15 C         136.6083  143.2053  154.7703 C.ar    1  UNL1        0.0046
     16 C         137.3011  142.3834  155.8166 C.ar    1  UNL1        0.0191
     17 C         138.4286  142.9747  156.6098 C.ar    1  UNL1        0.0815
     18 N         138.8633  144.3878  156.3567 N.ar    1  UNL1       -0.2874
     19 C         140.8020  143.5592  163.6924 C.ar    1  UNL1        0.1517
     20 C         141.1829  142.6994  164.8612 C.ar    1  UNL1        0.0344
     21 C         142.5521  142.8150  165.4627 C.ar    1  UNL1       -0.0100
     22 C         143.5406  143.7902  164.8954 C.ar    1  UNL1       -0.0023
     23 C         143.1598  144.6499  163.7267 C.ar    1  UNL1        0.0175
     24 C         141.7905  144.5344  163.1251 C.ar    1  UNL1        0.0849
     25 C         138.3357  144.3620  163.5416 C.3     1  UNL1        0.2525
     26 O         139.4328  143.4436  163.0910 O.3     1  UNL1       -0.4702
     27 C         142.9328  141.9552  166.6313 C.3     1  UNL1        0.1117
     28 C         141.9758  140.9203  167.1443 C.2     1  UNL1        0.2302
     29 O         141.9521  139.5515  166.5313 O.2     1  UNL1       -0.2745
     30 N         141.0426  141.2542  168.2702 N.am    1  UNL1       -0.2741
     31 C         140.0856  140.2193  168.7831 C.3     1  UNL1        0.1255
     32 C         139.1524  140.5533  169.9089 C.3     1  UNL1        0.1636
     33 O         139.1762  141.9221  170.5219 O.3     1  UNL1       -0.3501
     34 C         140.1332  142.9570  170.0090 C.3     1  UNL1        0.1636
     35 C         141.0664  142.6230  168.8831 C.3     1  UNL1        0.1255
@<TRIPOS>BOND
     1    25    26    1
     2    26    19    1
     3    19    20   ar
     4    20    21   ar
     5    21    27    1
     6    27    28    1
     7    28    29    2
     8    28    30   am
     9    30    31    1
    10    31    32    1
    11    32    33    1
    12    33    34    1
    13    34    35    1
    14    21    22   ar
    15    22    23   ar
    16    23    24   ar
    17    24     1    1
    18     1     3    1
    19     3     4   ar
    20     4     5   ar
    21     5     6   ar
    22     6     7    1
    23     6     8   ar
    24     8    10    1
    25    10    11   ar
    26    11    12   ar
    27    12    13   ar
    28    13    14   ar
    29    14    15   ar
    30    15    16   ar
    31    16    17   ar
    32    17    18   ar
    33     8     9   ar
    34    24    19   ar
    35     9     3   ar
    36    35    30    1
    37    18    10   ar
    38    18    13   ar
    39     1     2    1
@<TRIPOS>MOLECULE
*****
 35 39 0 0 0
SMALL
GASTEIGER

@<TRIPOS>ATOM
      1 N         137.3357  139.9104  160.2632 N.pl3   1  UNL1       -0.2802
      2 H         136.3696  139.9531  160.0789 H       1  UNL1        0.1552
      3 C         138.3198  140.3014  159.2009 C.ar    1  UNL1        0.2208
      4 N         138.9308  139.2511  158.3213 N.ar    1  UNL1       -0.2111
      5 C         139.9149  139.6421  157.2590 C.ar    1  UNL1        0.1147
      6 C         140.2881  141.0834  157.0761 C.ar    1  UNL1        0.0960
      7 CL        141.2722  141.4744  156.0138 Cl      1  UNL1       -0.0790
      8 C         139.6771  142.1338  157.9557 C.ar    1  UNL1        0.1138
      9 N         138.6930  141.7427  159.0180 N.ar    1  UNL1       -0.2111
     10 C         140.0502  143.5751  157.7729 C.ar    1  UNL1        0.1031
     11 C         141.1145  144.3131  158.5295 C.ar    1  UNL1        0.1196
     12 N         141.1466  145.7255  158.0255 N.ar    1  UNL1       -0.2248
     13 C         140.1022  145.8604  156.9574 C.ar    1  UNL1        0.1479
     14 C         139.6806  147.0218  156.1069 C.ar    1  UNL1        0.0374
     15 C         138.5814  146.8540  155.1001 C.ar    1  UNL1        0.0046
     16 C         137.9037  145.5250  154.9440 C.ar    1  UNL1        0.0191
     17 C         138.3253  144.3636  155.7945 C.ar    1  UNL1        0.0815
     18 N         139.4245  144.5314  156.8013 N.ar    1  UNL1       -0.2874
     19 C         137.6985  140.3590  162.7964 C.ar    1  UNL1        0.1517
     20 C         138.1864  139.9030  164.1397 C.ar    1  UNL1        0.0344
     21 C         138.7994  138.5425  164.2927 C.ar    1  UNL1       -0.0100
     22 C         138.9244  137.6380  163.1027 C.ar    1  UNL1       -0.0023
     23 C         138.4365  138.0940  161.7595 C.ar    1  UNL1        0.0175
     24 C         137.8236  139.4545  161.6064 C.ar    1  UNL1        0.0849
     25 C         137.9581  142.9090  162.3718 C.3     1  UNL1        0.2525
     26 O         137.0856  141.7195  162.6434 O.3     1  UNL1       -0.4702
     27 C         139.2872  138.0866  165.6359 C.3     1  UNL1        0.1117
     28 C         138.9828  138.8988  166.8596 C.2     1  UNL1        0.2302
     29 O         137.6850  138.7033  167.5858 O.2     1  UNL1       -0.2745
     30 N         139.9763  139.9067  167.3572 N.am    1  UNL1       -0.2741
     31 C         139.6719  140.7189  168.5810 C.3     1  UNL1        0.1255
     32 C         140.6653  141.7266  169.0784 C.3     1  UNL1        0.1636
     33 O         141.9631  141.9221  168.3522 O.3     1  UNL1       -0.3501
     34 C         142.2676  141.1099  167.1284 C.3     1  UNL1        0.1636
     35 C         141.2740  140.1021  166.6310 C.3     1  UNL1        0.1255
@<TRIPOS>BOND
     1    25    26    1
     2    26    19    1
     3    19    20   ar
     4    20    21   ar
     5    21    27    1
     6    27    28    1
     7    28    29    2
     8    28    30   am
     9    30    31    1
    10    31    32    1
    11    32    33    1
    12    33    34    1
    13    34    35    1
    14    21    22   ar
    15    22    23   ar
    16    23    24   ar
    17    24     1    1
    18     1     3    1
    19     3     4   ar
    20     4     5   ar
    21     5     6   ar
    22     6     7    1
    23     6     8   ar
    24     8    10    1
    25    10    11   ar
    26    11    12   ar
    27    12    13   ar
    28    13    14   ar
    29    14    15   ar
    30    15    16   ar
    31    16    17   ar
    32    17    18   ar
    33     8     9   ar
    34    24    19   ar
    35     9     3   ar
    36    35    30    1
    37    18    10   ar
    38    18    13   ar
    39     1     2    1
