@<TRIPOS>MOLECULE
*****
 45 49 0 0 0
SMALL
GASTEIGER

@<TRIPOS>ATOM
      1 C         144.4019  140.6329  156.4080 C.ar    1  UNL1        0.1400
      2 C         144.9032  142.0220  156.6707 C.ar    1  UNL1        0.0371
      3 C         144.7918  142.6121  158.0452 C.ar    1  UNL1        0.0089
      4 C         144.1792  141.8131  159.1571 C.ar    1  UNL1        0.0674
      5 C         143.6779  140.4240  158.8943 C.ar    1  UNL1        0.0553
      6 C         143.7893  139.8339  157.5198 C.ar    1  UNL1        0.0515
      7 N         143.0652  139.6249  160.0062 N.pl3   1  UNL1       -0.3073
      8 C         141.5753  139.5975  160.1773 C.3     1  UNL1        0.0909
      9 C         140.9626  138.7984  161.2892 C.3     1  UNL1        0.0252
     10 C         141.8399  138.0267  162.2299 C.3     1  UNL1        0.0472
     11 C         143.3299  138.0542  162.0587 C.3     1  UNL1        0.0252
     12 C         143.9425  138.8532  160.9469 C.3     1  UNL1        0.0909
     13 C         141.2274  137.2277  163.3417 C.3     1  UNL1        0.2071
     14 O         141.6025  137.5135  164.7656 O.3     1  UNL1       -0.4602
     15 C         141.1259  138.7719  165.4286 C.ar    1  UNL1        0.2245
     16 C         142.1185  139.7890  165.9084 C.ar    1  UNL1        0.0535
     17 C         141.6420  141.0473  166.5714 C.ar    1  UNL1       -0.0160
     18 C         140.1729  141.2884  166.7546 C.ar    1  UNL1        0.0166
     19 C         139.1803  140.2713  166.2749 C.ar    1  UNL1        0.1017
     20 N         139.6568  139.0130  165.6119 N.ar    1  UNL1       -0.2102
     21 C         142.6345  142.0645  167.0512 C.3     1  UNL1        0.0281
     22 C         143.6678  142.6068  166.1087 C.3     1  UNL1        0.0044
     23 C         144.6677  142.3889  165.0121 C.3     1  UNL1        0.0003
     24 C         144.4575  143.7641  165.5729 C.3     1  UNL1        0.0003
     25 C         142.5938  142.5393  168.4734 C.3     1  UNL1        0.0460
     26 C         143.5812  142.0083  169.4700 C.2     1  UNL1        0.0507
     27 O         143.4308  140.6152  170.0055 O.co2   1  UNL1       -0.5492
     28 O         144.7188  142.8704  169.9310 O.co2   1  UNL1       -0.5492
     29 C         144.0678  142.4032  160.5316 C.2     1  UNL1        0.2550
     30 O         145.0955  142.0756  161.5739 O.2     1  UNL1       -0.2695
     31 N         142.9288  143.3208  160.8638 N.am    1  UNL1       -0.2403
     32 C         141.9010  143.6484  159.8214 C.ar    1  UNL1        0.1372
     33 C         140.6186  142.8725  159.7628 C.ar    1  UNL1        0.0347
     34 C         139.5909  143.2001  158.7205 C.ar    1  UNL1        0.0041
     35 C         139.8455  144.3036  157.7368 C.ar    1  UNL1        0.0148
     36 C         141.1279  145.0795  157.7955 C.ar    1  UNL1        0.0608
     37 C         141.3826  146.1829  156.8119 C.3     1  UNL1        0.0521
     38 N         142.1557  144.7519  158.8378 N.ar    1  UNL1       -0.2346
     39 C         142.8174  143.9109  162.2384 C.3     1  UNL1        0.0998
     40 C         141.5655  143.7125  163.0406 C.3     1  UNL1        0.0187
     41 C         141.3501  145.1966  163.0715 C.3     1  UNL1        0.0017
     42 C         141.7809  142.2284  163.0097 C.3     1  UNL1        0.0017
     43 C         140.3137  143.5141  163.8427 C.3     1  UNL1        0.0017
     44 C         143.3445  140.1014  154.0951 C.3     1  UNL1        0.2525
     45 O         144.5133  140.0428  155.0334 O.3     1  UNL1       -0.4714
@<TRIPOS>UNITY_ATOM_ATTR
27 1
charge -1
@<TRIPOS>BOND
     1    44    45    1
     2    45     1    1
     3     1     2   ar
     4     2     3   ar
     5     3     4   ar
     6     4    29    1
     7    29    30    2
     8    29    31   am
     9    31    39    1
    10    39    40    1
    11    40    41    1
    12    40    42    1
    13    40    43    1
    14    31    32    1
    15    32    33   ar
    16    33    34   ar
    17    34    35   ar
    18    35    36   ar
    19    36    37    1
    20    36    38   ar
    21     4     5   ar
    22     5     7    1
    23     7     8    1
    24     8     9    1
    25     9    10    1
    26    10    13    1
    27    13    14    1
    28    14    15    1
    29    15    16   ar
    30    16    17   ar
    31    17    21    1
    32    21    25    1
    33    25    26    1
    34    26    27   ar
    35    26    28   ar
    36    21    22    1
    37    22    23    1
    38    23    24    1
    39    17    18   ar
    40    18    19   ar
    41    19    20   ar
    42    10    11    1
    43    11    12    1
    44     5     6   ar
    45     6     1   ar
    46    38    32   ar
    47    12     7    1
    48    20    15   ar
    49    24    22    1
@<TRIPOS>MOLECULE
*****
 45 49 0 0 0
SMALL
GASTEIGER

@<TRIPOS>ATOM
      1 C         140.8243  138.4018  157.1195 C.ar    1  UNL1        0.1400
      2 C         142.1954  138.9824  156.9381 C.ar    1  UNL1        0.0371
      3 C         143.0025  139.3880  158.1356 C.ar    1  UNL1        0.0089
      4 C         142.4386  139.2130  159.5145 C.ar    1  UNL1        0.0674
      5 C         141.0675  138.6324  159.6958 C.ar    1  UNL1        0.0553
      6 C         140.2603  138.2268  158.4983 C.ar    1  UNL1        0.0515
      7 N         140.5035  138.4574  161.0748 N.pl3   1  UNL1       -0.3073
      8 C         141.2175  137.5954  162.0732 C.3     1  UNL1        0.0909
      9 C         140.6535  137.4203  163.4522 C.3     1  UNL1        0.0252
     10 C         139.3755  138.1074  163.8325 C.3     1  UNL1        0.0472
     11 C         138.6615  138.9695  162.8339 C.3     1  UNL1        0.0252
     12 C         139.2255  139.1445  161.4551 C.3     1  UNL1        0.0909
     13 C         138.8115  137.9324  165.2113 C.3     1  UNL1        0.2071
     14 O         138.3106  139.1233  165.9734 O.3     1  UNL1       -0.4602
     15 C         139.2411  140.2563  166.2907 C.ar    1  UNL1        0.2245
     16 C         139.2728  141.4699  165.4097 C.ar    1  UNL1        0.0535
     17 C         140.2032  142.6028  165.7270 C.ar    1  UNL1       -0.0160
     18 C         141.1020  142.5222  166.9252 C.ar    1  UNL1        0.0166
     19 C         141.0703  141.3086  167.8062 C.ar    1  UNL1        0.1017
     20 N         140.1398  140.1757  167.4889 N.ar    1  UNL1       -0.2102
     21 C         140.2349  143.8165  164.8460 C.3     1  UNL1        0.0281
     22 C         141.5251  144.2542  164.2184 C.3     1  UNL1        0.0044
     23 C         143.0151  144.4123  164.2871 C.3     1  UNL1        0.0003
     24 C         142.2697  144.8543  163.0628 C.3     1  UNL1        0.0003
     25 C         138.9764  144.5924  164.5926 C.3     1  UNL1        0.0460
     26 C         138.3110  144.5246  163.2500 C.2     1  UNL1        0.0507
     27 O         138.5253  145.6224  162.2504 O.co2   1  UNL1       -0.5492
     28 O         137.4313  143.3591  162.9069 O.co2   1  UNL1       -0.5492
     29 C         143.2458  139.6186  160.7119 C.2     1  UNL1        0.2550
     30 O         144.1530  138.6259  161.3761 O.2     1  UNL1       -0.2695
     31 N         143.1456  141.0170  161.2452 N.am    1  UNL1       -0.2403
     32 C         142.2383  142.0099  160.5811 C.ar    1  UNL1        0.1372
     33 C         140.8081  142.1279  161.0175 C.ar    1  UNL1        0.0347
     34 C         139.9008  143.1207  160.3534 C.ar    1  UNL1        0.0041
     35 C         140.4237  143.9956  159.2528 C.ar    1  UNL1        0.0148
     36 C         141.8539  143.8776  158.8163 C.ar    1  UNL1        0.0608
     37 C         142.3769  144.7524  157.7158 C.3     1  UNL1        0.0521
     38 N         142.7613  142.8847  159.4805 N.ar    1  UNL1       -0.2346
     39 C         143.9528  141.4226  162.4427 C.3     1  UNL1        0.0998
     40 C         143.7912  140.6873  163.7402 C.3     1  UNL1        0.0187
     41 C         142.3001  140.7515  163.5908 C.3     1  UNL1        0.0017
     42 C         145.2824  140.6231  163.8895 C.3     1  UNL1        0.0017
     43 C         143.6296  139.9520  165.0375 C.3     1  UNL1        0.0017
     44 C         139.5006  139.0403  154.9770 C.3     1  UNL1        0.2525
     45 O         140.0171  137.9962  155.9220 O.3     1  UNL1       -0.4714
@<TRIPOS>UNITY_ATOM_ATTR
27 1
charge -1
@<TRIPOS>BOND
     1    44    45    1
     2    45     1    1
     3     1     2   ar
     4     2     3   ar
     5     3     4   ar
     6     4    29    1
     7    29    30    2
     8    29    31   am
     9    31    39    1
    10    39    40    1
    11    40    41    1
    12    40    42    1
    13    40    43    1
    14    31    32    1
    15    32    33   ar
    16    33    34   ar
    17    34    35   ar
    18    35    36   ar
    19    36    37    1
    20    36    38   ar
    21     4     5   ar
    22     5     7    1
    23     7     8    1
    24     8     9    1
    25     9    10    1
    26    10    13    1
    27    13    14    1
    28    14    15    1
    29    15    16   ar
    30    16    17   ar
    31    17    21    1
    32    21    25    1
    33    25    26    1
    34    26    27   ar
    35    26    28   ar
    36    21    22    1
    37    22    23    1
    38    23    24    1
    39    17    18   ar
    40    18    19   ar
    41    19    20   ar
    42    10    11    1
    43    11    12    1
    44     5     6   ar
    45     6     1   ar
    46    38    32   ar
    47    12     7    1
    48    20    15   ar
    49    24    22    1
@<TRIPOS>MOLECULE
*****
 45 49 0 0 0
SMALL
GASTEIGER

@<TRIPOS>ATOM
      1 C         140.8119  141.7698  169.1721 C.ar    1  UNL1        0.1400
      2 C         140.3001  140.3680  169.0205 C.ar    1  UNL1        0.0371
      3 C         139.7734  139.9009  167.6960 C.ar    1  UNL1        0.0089
      4 C         139.7586  140.8356  166.5229 C.ar    1  UNL1        0.0674
      5 C         140.2704  142.2374  166.6744 C.ar    1  UNL1        0.0553
      6 C         140.7970  142.7045  167.9990 C.ar    1  UNL1        0.0515
      7 N         140.2556  143.1722  165.5014 N.pl3   1  UNL1       -0.3073
      8 C         141.5240  143.4566  164.7529 C.3     1  UNL1        0.0909
      9 C         141.5091  144.3914  163.5798 C.3     1  UNL1        0.0252
     10 C         140.2259  145.0417  163.1553 C.3     1  UNL1        0.0472
     11 C         138.9574  144.7572  163.9038 C.3     1  UNL1        0.0252
     12 C         138.9723  143.8225  165.0768 C.3     1  UNL1        0.0909
     13 C         140.2110  145.9764  161.9822 C.3     1  UNL1        0.2071
     14 O         139.6832  145.5097  160.6580 O.3     1  UNL1       -0.4602
     15 C         140.5868  144.7876  159.7028 C.ar    1  UNL1        0.2245
     16 C         140.6118  143.2880  159.6822 C.ar    1  UNL1        0.0535
     17 C         141.5153  142.5661  158.7271 C.ar    1  UNL1       -0.0160
     18 C         142.3939  143.3437  157.7925 C.ar    1  UNL1        0.0166
     19 C         142.3689  144.8433  157.8131 C.ar    1  UNL1        0.1017
     20 N         141.4653  145.5653  158.7683 N.ar    1  UNL1       -0.2102
     21 C         141.5403  141.0664  158.7065 C.3     1  UNL1        0.0281
     22 C         142.3849  140.3167  159.6937 C.3     1  UNL1        0.0044
     23 C         143.6431  140.1992  160.5017 C.3     1  UNL1        0.0003
     24 C         142.5895  139.1357  160.5955 C.3     1  UNL1        0.0003
     25 C         140.7207  140.3164  157.6986 C.3     1  UNL1        0.0460
     26 C         139.4907  139.5763  158.1334 C.2     1  UNL1        0.0507
     27 O         138.1324  140.1075  157.7826 O.co2   1  UNL1       -0.5492
     28 O         139.6188  138.3049  158.9190 O.co2   1  UNL1       -0.5492
     29 C         139.2319  140.3685  165.1984 C.2     1  UNL1        0.2550
     30 O         137.7811  140.5480  164.8626 O.2     1  UNL1       -0.2695
     31 N         140.1561  139.7220  164.2096 N.am    1  UNL1       -0.2403
     32 C         141.6071  139.5425  164.5453 C.ar    1  UNL1        0.1372
     33 C         142.0345  138.4272  165.4526 C.ar    1  UNL1        0.0347
     34 C         143.4854  138.2477  165.7884 C.ar    1  UNL1        0.0041
     35 C         144.5089  139.1836  165.2168 C.ar    1  UNL1        0.0148
     36 C         144.0814  140.2989  164.3094 C.ar    1  UNL1        0.0608
     37 C         145.1048  141.2348  163.7378 C.3     1  UNL1        0.0521
     38 N         142.6305  140.4784  163.9737 N.ar    1  UNL1       -0.2346
     39 C         139.6295  139.2549  162.8850 C.3     1  UNL1        0.0998
     40 C         138.8140  140.1819  162.0330 C.3     1  UNL1        0.0187
     41 C         137.7844  139.1067  161.8488 C.3     1  UNL1        0.0017
     42 C         139.8436  141.2570  162.2173 C.3     1  UNL1        0.0017
     43 C         137.9986  141.1087  161.1811 C.3     1  UNL1        0.0017
     44 C         142.6185  143.0162  170.5622 C.3     1  UNL1        0.2525
     45 O         141.3385  142.2369  170.4966 O.3     1  UNL1       -0.4714
@<TRIPOS>UNITY_ATOM_ATTR
27 1
charge -1
@<TRIPOS>BOND
     1    44    45    1
     2    45     1    1
     3     1     2   ar
     4     2     3   ar
     5     3     4   ar
     6     4    29    1
     7    29    30    2
     8    29    31   am
     9    31    39    1
    10    39    40    1
    11    40    41    1
    12    40    42    1
    13    40    43    1
    14    31    32    1
    15    32    33   ar
    16    33    34   ar
    17    34    35   ar
    18    35    36   ar
    19    36    37    1
    20    36    38   ar
    21     4     5   ar
    22     5     7    1
    23     7     8    1
    24     8     9    1
    25     9    10    1
    26    10    13    1
    27    13    14    1
    28    14    15    1
    29    15    16   ar
    30    16    17   ar
    31    17    21    1
    32    21    25    1
    33    25    26    1
    34    26    27   ar
    35    26    28   ar
    36    21    22    1
    37    22    23    1
    38    23    24    1
    39    17    18   ar
    40    18    19   ar
    41    19    20   ar
    42    10    11    1
    43    11    12    1
    44     5     6   ar
    45     6     1   ar
    46    38    32   ar
    47    12     7    1
    48    20    15   ar
    49    24    22    1
@<TRIPOS>MOLECULE
*****
 45 49 0 0 0
SMALL
GASTEIGER

@<TRIPOS>ATOM
      1 C         138.3531  139.8748  158.7763 C.ar    1  UNL1        0.1400
      2 C         139.6535  139.3475  158.2465 C.ar    1  UNL1        0.0371
      3 C         140.6848  138.8070  159.1922 C.ar    1  UNL1        0.0089
      4 C         140.4156  138.7938  160.6678 C.ar    1  UNL1        0.0674
      5 C         139.1151  139.3212  161.1976 C.ar    1  UNL1        0.0553
      6 C         138.0839  139.8617  160.2519 C.ar    1  UNL1        0.0515
      7 N         138.8458  139.3080  162.6732 N.pl3   1  UNL1       -0.3073
      8 C         138.5738  140.5931  163.3975 C.3     1  UNL1        0.0909
      9 C         138.3045  140.5799  164.8731 C.3     1  UNL1        0.0252
     10 C         138.3073  139.2817  165.6244 C.3     1  UNL1        0.0472
     11 C         138.5794  137.9965  164.9001 C.3     1  UNL1        0.0252
     12 C         138.8486  138.0097  163.4245 C.3     1  UNL1        0.0909
     13 C         138.0381  139.2685  167.0999 C.3     1  UNL1        0.2071
     14 O         139.1789  139.1791  168.0697 O.3     1  UNL1       -0.4602
     15 C         140.1990  140.2772  168.1309 C.ar    1  UNL1        0.2245
     16 C         140.5480  141.0466  166.8915 C.ar    1  UNL1        0.0535
     17 C         141.5681  142.1446  166.9528 C.ar    1  UNL1       -0.0160
     18 C         142.2392  142.4732  168.2534 C.ar    1  UNL1        0.0166
     19 C         141.8902  141.7038  169.4928 C.ar    1  UNL1        0.1017
     20 N         140.8701  140.6057  169.4315 N.ar    1  UNL1       -0.2102
     21 C         141.9171  142.9141  165.7133 C.3     1  UNL1        0.0281
     22 C         140.8782  143.7591  165.0377 C.3     1  UNL1        0.0044
     23 C         140.5194  144.8916  164.1219 C.3     1  UNL1        0.0003
     24 C         139.4375  144.0902  164.7832 C.3     1  UNL1        0.0003
     25 C         143.3051  142.8385  165.1496 C.3     1  UNL1        0.0460
     26 C         144.1716  144.0627  165.1232 C.2     1  UNL1        0.0507
     27 O         143.9587  145.1097  164.0703 O.co2   1  UNL1       -0.5492
     28 O         145.2509  144.2398  166.1496 O.co2   1  UNL1       -0.5492
     29 C         141.4468  138.2533  161.6135 C.2     1  UNL1        0.2550
     30 O         141.3214  136.8546  162.1404 O.2     1  UNL1       -0.2695
     31 N         142.6034  139.1116  162.0324 N.am    1  UNL1       -0.2403
     32 C         142.7289  140.5105  161.5055 C.ar    1  UNL1        0.1372
     33 C         141.9130  141.6152  162.1089 C.ar    1  UNL1        0.0347
     34 C         142.0384  143.0139  161.5820 C.ar    1  UNL1        0.0041
     35 C         142.9798  143.3081  160.4518 C.ar    1  UNL1        0.0148
     36 C         143.7956  142.2035  159.8484 C.ar    1  UNL1        0.0608
     37 C         144.7369  142.4976  158.7182 C.3     1  UNL1        0.0521
     38 N         143.6702  140.8046  160.3753 N.ar    1  UNL1       -0.2346
     39 C         143.6347  138.5711  162.9781 C.3     1  UNL1        0.0998
     40 C         143.6624  139.0371  164.4037 C.3     1  UNL1        0.0187
     41 C         145.0240  139.6269  164.1844 C.3     1  UNL1        0.0017
     42 C         142.3008  138.4474  164.6231 C.3     1  UNL1        0.0017
     43 C         143.6902  139.5031  165.8292 C.3     1  UNL1        0.0017
     44 C         137.7487  141.1763  156.6105 C.3     1  UNL1        0.2525
     45 O         137.3219  140.4153  157.8306 O.3     1  UNL1       -0.4714
@<TRIPOS>UNITY_ATOM_ATTR
27 1
charge -1
@<TRIPOS>BOND
     1    44    45    1
     2    45     1    1
     3     1     2   ar
     4     2     3   ar
     5     3     4   ar
     6     4    29    1
     7    29    30    2
     8    29    31   am
     9    31    39    1
    10    39    40    1
    11    40    41    1
    12    40    42    1
    13    40    43    1
    14    31    32    1
    15    32    33   ar
    16    33    34   ar
    17    34    35   ar
    18    35    36   ar
    19    36    37    1
    20    36    38   ar
    21     4     5   ar
    22     5     7    1
    23     7     8    1
    24     8     9    1
    25     9    10    1
    26    10    13    1
    27    13    14    1
    28    14    15    1
    29    15    16   ar
    30    16    17   ar
    31    17    21    1
    32    21    25    1
    33    25    26    1
    34    26    27   ar
    35    26    28   ar
    36    21    22    1
    37    22    23    1
    38    23    24    1
    39    17    18   ar
    40    18    19   ar
    41    19    20   ar
    42    10    11    1
    43    11    12    1
    44     5     6   ar
    45     6     1   ar
    46    38    32   ar
    47    12     7    1
    48    20    15   ar
    49    24    22    1
@<TRIPOS>MOLECULE
*****
 45 49 0 0 0
SMALL
GASTEIGER

@<TRIPOS>ATOM
      1 C         140.5024  141.7420  168.9590 C.ar    1  UNL1        0.1400
      2 C         140.1191  140.3096  168.7323 C.ar    1  UNL1        0.0371
      3 C         139.7132  139.8494  167.3636 C.ar    1  UNL1        0.0089
      4 C         139.6905  140.8216  166.2215 C.ar    1  UNL1        0.0674
      5 C         140.0738  142.2539  166.4482 C.ar    1  UNL1        0.0553
      6 C         140.4798  142.7141  167.8169 C.ar    1  UNL1        0.0515
      7 N         140.0512  143.2261  165.3060 N.pl3   1  UNL1       -0.3073
      8 C         141.3352  143.6527  164.6587 C.3     1  UNL1        0.0909
      9 C         141.3126  144.6249  163.5166 C.3     1  UNL1        0.0252
     10 C         140.0058  145.1705  163.0219 C.3     1  UNL1        0.0472
     11 C         138.7217  144.7439  163.6693 C.3     1  UNL1        0.0252
     12 C         138.7444  143.7717  164.8114 C.3     1  UNL1        0.0909
     13 C         139.9831  146.1427  161.8798 C.3     1  UNL1        0.2071
     14 O         139.4371  145.7221  160.5476 O.3     1  UNL1       -0.4602
     15 C         140.3740  145.3777  159.4279 C.ar    1  UNL1        0.2245
     16 C         141.4761  144.3848  159.6506 C.ar    1  UNL1        0.0535
     17 C         142.4129  144.0405  158.5309 C.ar    1  UNL1       -0.0160
     18 C         142.2476  144.6889  157.1885 C.ar    1  UNL1        0.0166
     19 C         141.1455  145.6818  156.9658 C.ar    1  UNL1        0.1017
     20 N         140.2087  146.0261  158.0855 N.ar    1  UNL1       -0.2102
     21 C         143.5150  143.0476  158.7537 C.3     1  UNL1        0.0281
     22 C         144.0789  142.8490  160.1293 C.3     1  UNL1        0.0044
     23 C         145.0628  142.1854  161.0466 C.3     1  UNL1        0.0003
     24 C         144.0715  143.1686  161.5949 C.3     1  UNL1        0.0003
     25 C         144.0532  142.2533  157.6006 C.3     1  UNL1        0.0460
     26 C         143.7122  140.7987  157.4678 C.2     1  UNL1        0.0507
     27 O         142.8871  140.3246  156.3082 O.co2   1  UNL1       -0.5492
     28 O         144.1963  139.8181  158.4944 O.co2   1  UNL1       -0.5492
     29 C         139.2846  140.3613  164.8528 C.2     1  UNL1        0.2550
     30 O         137.8494  140.4518  164.4261 O.2     1  UNL1       -0.2695
     31 N         140.3138  139.8106  163.9108 N.am    1  UNL1       -0.2403
     32 C         141.7490  139.7201  164.3375 C.ar    1  UNL1        0.1372
     33 C         142.7676  140.6481  163.7447 C.ar    1  UNL1        0.0347
     34 C         144.2028  140.5576  164.1714 C.ar    1  UNL1        0.0041
     35 C         144.6194  139.5392  165.1908 C.ar    1  UNL1        0.0148
     36 C         143.6008  138.6112  165.7835 C.ar    1  UNL1        0.0608
     37 C         144.0174  137.5927  166.8029 C.3     1  UNL1        0.0521
     38 N         142.1656  138.7017  165.3568 N.ar    1  UNL1       -0.2346
     39 C         139.9078  139.3504  162.5420 C.3     1  UNL1        0.0998
     40 C         140.4933  140.0055  161.3262 C.3     1  UNL1        0.0187
     41 C         139.8452  141.3018  161.7125 C.3     1  UNL1        0.0017
     42 C         141.1415  138.7091  160.9399 C.3     1  UNL1        0.0017
     43 C         141.0788  140.6605  160.1105 C.3     1  UNL1        0.0017
     44 C         141.8997  141.4059  171.1234 C.3     1  UNL1        0.2525
     45 O         140.9084  142.2022  170.3277 O.3     1  UNL1       -0.4714
@<TRIPOS>UNITY_ATOM_ATTR
27 1
charge -1
@<TRIPOS>BOND
     1    44    45    1
     2    45     1    1
     3     1     2   ar
     4     2     3   ar
     5     3     4   ar
     6     4    29    1
     7    29    30    2
     8    29    31   am
     9    31    39    1
    10    39    40    1
    11    40    41    1
    12    40    42    1
    13    40    43    1
    14    31    32    1
    15    32    33   ar
    16    33    34   ar
    17    34    35   ar
    18    35    36   ar
    19    36    37    1
    20    36    38   ar
    21     4     5   ar
    22     5     7    1
    23     7     8    1
    24     8     9    1
    25     9    10    1
    26    10    13    1
    27    13    14    1
    28    14    15    1
    29    15    16   ar
    30    16    17   ar
    31    17    21    1
    32    21    25    1
    33    25    26    1
    34    26    27   ar
    35    26    28   ar
    36    21    22    1
    37    22    23    1
    38    23    24    1
    39    17    18   ar
    40    18    19   ar
    41    19    20   ar
    42    10    11    1
    43    11    12    1
    44     5     6   ar
    45     6     1   ar
    46    38    32   ar
    47    12     7    1
    48    20    15   ar
    49    24    22    1
@<TRIPOS>MOLECULE
*****
 45 49 0 0 0
SMALL
GASTEIGER

@<TRIPOS>ATOM
      1 C         140.5557  141.7495  168.7235 C.ar    1  UNL1        0.1400
      2 C         140.1631  140.3228  168.4780 C.ar    1  UNL1        0.0371
      3 C         139.7151  139.8925  167.1126 C.ar    1  UNL1        0.0089
      4 C         139.6597  140.8889  165.9928 C.ar    1  UNL1        0.0674
      5 C         140.0523  142.3156  166.2383 C.ar    1  UNL1        0.0553
      6 C         140.5003  142.7459  167.6036 C.ar    1  UNL1        0.0515
      7 N         139.9969  143.3121  165.1184 N.pl3   1  UNL1       -0.3073
      8 C         141.2574  143.9617  164.6295 C.3     1  UNL1        0.0909
      9 C         141.2020  144.9582  163.5096 C.3     1  UNL1        0.0252
     10 C         139.8860  145.3050  162.8788 C.3     1  UNL1        0.0472
     11 C         138.6255  144.6554  163.3678 C.3     1  UNL1        0.0252
     12 C         138.6809  143.6589  164.4876 C.3     1  UNL1        0.0909
     13 C         139.8306  146.3015  161.7590 C.3     1  UNL1        0.2071
     14 O         140.2573  145.9017  160.3776 O.3     1  UNL1       -0.4602
     15 C         140.3816  144.4498  160.0217 C.ar    1  UNL1        0.2245
     16 C         141.7243  143.7820  160.0541 C.ar    1  UNL1        0.0535
     17 C         141.8486  142.3302  159.6982 C.ar    1  UNL1       -0.0160
     18 C         140.6302  141.5462  159.3099 C.ar    1  UNL1        0.0166
     19 C         139.2874  142.2140  159.2775 C.ar    1  UNL1        0.1017
     20 N         139.1632  143.6659  159.6334 N.ar    1  UNL1       -0.2102
     21 C         143.1913  141.6623  159.7306 C.3     1  UNL1        0.0281
     22 C         143.3155  140.2514  160.2245 C.3     1  UNL1        0.0044
     23 C         142.7423  138.8739  160.3788 C.3     1  UNL1        0.0003
     24 C         144.1038  139.1852  160.9258 C.3     1  UNL1        0.0003
     25 C         144.4099  142.4053  159.2691 C.3     1  UNL1        0.0460
     26 C         144.7035  142.5273  157.8032 C.2     1  UNL1        0.0507
     27 O         143.6417  143.0174  156.8638 O.co2   1  UNL1       -0.5492
     28 O         146.0590  142.1591  157.2766 O.co2   1  UNL1       -0.5492
     29 C         139.2117  140.4586  164.6275 C.2     1  UNL1        0.2550
     30 O         137.7482  140.3812  164.3081 O.2     1  UNL1       -0.2695
     31 N         140.2272  140.1057  163.5815 N.am    1  UNL1       -0.2403
     32 C         141.6908  140.1831  163.9008 C.ar    1  UNL1        0.1372
     33 C         142.3499  139.0776  164.6712 C.ar    1  UNL1        0.0347
     34 C         143.8134  139.1550  164.9905 C.ar    1  UNL1        0.0041
     35 C         144.6180  140.3379  164.5395 C.ar    1  UNL1        0.0148
     36 C         143.9590  141.4435  163.7691 C.ar    1  UNL1        0.0608
     37 C         144.7635  142.6263  163.3180 C.3     1  UNL1        0.0521
     38 N         142.4953  141.3660  163.4497 N.ar    1  UNL1       -0.2346
     39 C         139.7792  139.6754  162.2162 C.3     1  UNL1        0.0998
     40 C         138.7343  138.6090  162.0712 C.3     1  UNL1        0.0187
     41 C         137.8730  139.5588  161.2927 C.3     1  UNL1        0.0017
     42 C         139.5956  137.6592  162.8496 C.3     1  UNL1        0.0017
     43 C         137.6894  137.5426  161.9261 C.3     1  UNL1        0.0017
     44 C         141.6486  141.1901  171.0131 C.3     1  UNL1        0.2525
     45 O         141.0037  142.1798  170.0888 O.3     1  UNL1       -0.4714
@<TRIPOS>UNITY_ATOM_ATTR
27 1
charge -1
@<TRIPOS>BOND
     1    44    45    1
     2    45     1    1
     3     1     2   ar
     4     2     3   ar
     5     3     4   ar
     6     4    29    1
     7    29    30    2
     8    29    31   am
     9    31    39    1
    10    39    40    1
    11    40    41    1
    12    40    42    1
    13    40    43    1
    14    31    32    1
    15    32    33   ar
    16    33    34   ar
    17    34    35   ar
    18    35    36   ar
    19    36    37    1
    20    36    38   ar
    21     4     5   ar
    22     5     7    1
    23     7     8    1
    24     8     9    1
    25     9    10    1
    26    10    13    1
    27    13    14    1
    28    14    15    1
    29    15    16   ar
    30    16    17   ar
    31    17    21    1
    32    21    25    1
    33    25    26    1
    34    26    27   ar
    35    26    28   ar
    36    21    22    1
    37    22    23    1
    38    23    24    1
    39    17    18   ar
    40    18    19   ar
    41    19    20   ar
    42    10    11    1
    43    11    12    1
    44     5     6   ar
    45     6     1   ar
    46    38    32   ar
    47    12     7    1
    48    20    15   ar
    49    24    22    1
@<TRIPOS>MOLECULE
*****
 45 49 0 0 0
SMALL
GASTEIGER

@<TRIPOS>ATOM
      1 C         140.5048  141.9279  168.8894 C.ar    1  UNL1        0.1400
      2 C         139.9843  140.5237  168.8048 C.ar    1  UNL1        0.0371
      3 C         139.5405  139.9665  167.4847 C.ar    1  UNL1        0.0089
      4 C         139.6173  140.8135  166.2492 C.ar    1  UNL1        0.0674
      5 C         140.1378  142.2177  166.3338 C.ar    1  UNL1        0.0553
      6 C         140.5816  142.7749  167.6539 C.ar    1  UNL1        0.0515
      7 N         140.2146  143.0649  165.0982 N.pl3   1  UNL1       -0.3073
      8 C         141.5465  143.3689  164.4789 C.3     1  UNL1        0.0909
      9 C         141.6233  144.2161  163.2433 C.3     1  UNL1        0.0252
     10 C         140.3681  144.7591  162.6271 C.3     1  UNL1        0.0472
     11 C         139.0362  144.4550  163.2465 C.3     1  UNL1        0.0252
     12 C         138.9595  143.6079  164.4820 C.3     1  UNL1        0.0909
     13 C         140.4449  145.6061  161.3916 C.3     1  UNL1        0.2071
     14 O         139.7295  145.1795  160.1442 O.3     1  UNL1       -0.4602
     15 C         140.1508  143.9307  159.4278 C.ar    1  UNL1        0.2245
     16 C         141.5217  143.3645  159.6507 C.ar    1  UNL1        0.0535
     17 C         141.9430  142.1158  158.9344 C.ar    1  UNL1       -0.0160
     18 C         140.9933  141.4333  157.9950 C.ar    1  UNL1        0.0166
     19 C         139.6223  141.9996  157.7721 C.ar    1  UNL1        0.1017
     20 N         139.2011  143.2483  158.4884 N.ar    1  UNL1       -0.2102
     21 C         143.3140  141.5494  159.1573 C.3     1  UNL1        0.0281
     22 C         144.4166  141.8496  158.1856 C.3     1  UNL1        0.0044
     23 C         145.6754  142.5867  157.8365 C.3     1  UNL1        0.0003
     24 C         145.0675  141.6323  156.8518 C.3     1  UNL1        0.0003
     25 C         143.5823  140.6829  160.3519 C.3     1  UNL1        0.0460
     26 C         143.6264  139.1911  160.2017 C.2     1  UNL1        0.0507
     27 O         143.4142  138.5664  158.8545 O.co2   1  UNL1       -0.5492
     28 O         143.8826  138.3240  161.3985 O.co2   1  UNL1       -0.5492
     29 C         139.1736  140.2563  164.9291 C.2     1  UNL1        0.2550
     30 O         137.7415  140.3880  164.5027 O.2     1  UNL1       -0.2695
     31 N         140.1619  139.5675  164.0354 N.am    1  UNL1       -0.2403
     32 C         141.5940  139.4357  164.4619 C.ar    1  UNL1        0.1372
     33 C         141.9867  138.3834  165.4560 C.ar    1  UNL1        0.0347
     34 C         143.4188  138.2517  165.8825 C.ar    1  UNL1        0.0041
     35 C         144.4581  139.1723  165.3147 C.ar    1  UNL1        0.0148
     36 C         144.0654  140.2246  164.3205 C.ar    1  UNL1        0.0608
     37 C         145.1047  141.1451  163.7527 C.3     1  UNL1        0.0521
     38 N         142.6333  140.3563  163.8941 N.ar    1  UNL1       -0.2346
     39 C         139.7181  139.0103  162.7154 C.3     1  UNL1        0.0998
     40 C         138.9017  139.8539  161.7815 C.3     1  UNL1        0.0187
     41 C         139.9666  140.9100  161.8047 C.3     1  UNL1        0.0017
     42 C         137.8369  138.7977  161.7583 C.3     1  UNL1        0.0017
     43 C         138.0854  140.6974  160.8477 C.3     1  UNL1        0.0017
     44 C         141.6975  141.6168  171.1764 C.3     1  UNL1        0.2525
     45 O         140.9485  142.4851  170.2095 O.3     1  UNL1       -0.4714
@<TRIPOS>UNITY_ATOM_ATTR
27 1
charge -1
@<TRIPOS>BOND
     1    44    45    1
     2    45     1    1
     3     1     2   ar
     4     2     3   ar
     5     3     4   ar
     6     4    29    1
     7    29    30    2
     8    29    31   am
     9    31    39    1
    10    39    40    1
    11    40    41    1
    12    40    42    1
    13    40    43    1
    14    31    32    1
    15    32    33   ar
    16    33    34   ar
    17    34    35   ar
    18    35    36   ar
    19    36    37    1
    20    36    38   ar
    21     4     5   ar
    22     5     7    1
    23     7     8    1
    24     8     9    1
    25     9    10    1
    26    10    13    1
    27    13    14    1
    28    14    15    1
    29    15    16   ar
    30    16    17   ar
    31    17    21    1
    32    21    25    1
    33    25    26    1
    34    26    27   ar
    35    26    28   ar
    36    21    22    1
    37    22    23    1
    38    23    24    1
    39    17    18   ar
    40    18    19   ar
    41    19    20   ar
    42    10    11    1
    43    11    12    1
    44     5     6   ar
    45     6     1   ar
    46    38    32   ar
    47    12     7    1
    48    20    15   ar
    49    24    22    1
@<TRIPOS>MOLECULE
*****
 45 49 0 0 0
SMALL
GASTEIGER

@<TRIPOS>ATOM
      1 C         144.2179  140.7167  156.4696 C.ar    1  UNL1        0.1400
      2 C         144.6698  142.1360  156.6461 C.ar    1  UNL1        0.0371
      3 C         144.5860  142.7877  157.9946 C.ar    1  UNL1        0.0089
      4 C         144.0503  142.0200  159.1665 C.ar    1  UNL1        0.0674
      5 C         143.5984  140.6006  158.9900 C.ar    1  UNL1        0.0553
      6 C         143.6822  139.9490  157.6416 C.ar    1  UNL1        0.0515
      7 N         143.0626  139.8328  160.1621 N.pl3   1  UNL1       -0.3073
      8 C         144.0075  139.2278  161.1575 C.3     1  UNL1        0.0909
      9 C         143.4718  138.4600  162.3295 C.3     1  UNL1        0.0252
     10 C         141.9911  138.2973  162.5060 C.3     1  UNL1        0.0472
     11 C         141.0462  138.9024  161.5105 C.3     1  UNL1        0.0252
     12 C         141.5819  139.6702  160.3385 C.3     1  UNL1        0.0909
     13 C         141.4553  137.5296  163.6779 C.3     1  UNL1        0.2071
     14 O         141.8978  137.8778  165.0682 O.3     1  UNL1       -0.4602
     15 C         141.3671  139.1108  165.7375 C.ar    1  UNL1        0.2245
     16 C         140.3532  139.9666  165.0378 C.ar    1  UNL1        0.0535
     17 C         139.8225  141.1996  165.7071 C.ar    1  UNL1       -0.0160
     18 C         140.3057  141.5768  167.0762 C.ar    1  UNL1        0.0166
     19 C         141.3195  140.7210  167.7759 C.ar    1  UNL1        0.1017
     20 N         141.8502  139.4880  167.1066 N.ar    1  UNL1       -0.2102
     21 C         138.8086  142.0555  165.0074 C.3     1  UNL1        0.0281
     22 C         138.9602  143.5478  165.0053 C.3     1  UNL1        0.0044
     23 C         139.6477  144.7830  164.5038 C.3     1  UNL1        0.0003
     24 C         138.5351  144.8974  165.5033 C.3     1  UNL1        0.0003
     25 C         137.6432  141.4190  164.3097 C.3     1  UNL1        0.0460
     26 C         137.6330  141.3100  162.8138 C.2     1  UNL1        0.0507
     27 O         137.5190  142.5466  161.9723 O.co2   1  UNL1       -0.5492
     28 O         137.7367  139.9643  162.1591 O.co2   1  UNL1       -0.5492
     29 C         143.9665  142.6716  160.5150 C.2     1  UNL1        0.2550
     30 O         145.0647  142.4674  161.5162 O.2     1  UNL1       -0.2695
     31 N         142.7846  143.5274  160.8623 N.am    1  UNL1       -0.2403
     32 C         141.6864  143.7316  159.8611 C.ar    1  UNL1        0.1372
     33 C         141.6905  144.9460  158.9807 C.ar    1  UNL1        0.0347
     34 C         140.5923  145.1503  157.9796 C.ar    1  UNL1        0.0041
     35 C         139.4901  144.1400  157.8588 C.ar    1  UNL1        0.0148
     36 C         139.4860  142.9256  158.7392 C.ar    1  UNL1        0.0608
     37 C         138.3838  141.9154  158.6184 C.3     1  UNL1        0.0521
     38 N         140.5842  142.7214  159.7404 N.ar    1  UNL1       -0.2346
     39 C         142.7008  144.1790  162.2108 C.3     1  UNL1        0.0998
     40 C         142.8853  143.3586  163.4530 C.3     1  UNL1        0.0187
     41 C         141.9293  142.3339  162.9181 C.3     1  UNL1        0.0017
     42 C         143.8413  144.3832  163.9878 C.3     1  UNL1        0.0017
     43 C         143.0697  142.5382  164.6951 C.3     1  UNL1        0.0017
     44 C         144.8692  138.6828  154.9901 C.3     1  UNL1        0.2525
     45 O         144.3016  140.0651  155.1211 O.3     1  UNL1       -0.4714
@<TRIPOS>UNITY_ATOM_ATTR
27 1
charge -1
@<TRIPOS>BOND
     1    44    45    1
     2    45     1    1
     3     1     2   ar
     4     2     3   ar
     5     3     4   ar
     6     4    29    1
     7    29    30    2
     8    29    31   am
     9    31    39    1
    10    39    40    1
    11    40    41    1
    12    40    42    1
    13    40    43    1
    14    31    32    1
    15    32    33   ar
    16    33    34   ar
    17    34    35   ar
    18    35    36   ar
    19    36    37    1
    20    36    38   ar
    21     4     5   ar
    22     5     7    1
    23     7     8    1
    24     8     9    1
    25     9    10    1
    26    10    13    1
    27    13    14    1
    28    14    15    1
    29    15    16   ar
    30    16    17   ar
    31    17    21    1
    32    21    25    1
    33    25    26    1
    34    26    27   ar
    35    26    28   ar
    36    21    22    1
    37    22    23    1
    38    23    24    1
    39    17    18   ar
    40    18    19   ar
    41    19    20   ar
    42    10    11    1
    43    11    12    1
    44     5     6   ar
    45     6     1   ar
    46    38    32   ar
    47    12     7    1
    48    20    15   ar
    49    24    22    1
@<TRIPOS>MOLECULE
*****
 45 49 0 0 0
SMALL
GASTEIGER

@<TRIPOS>ATOM
      1 C         144.5709  140.7326  157.1001 C.ar    1  UNL1        0.1400
      2 C         145.2554  142.0000  157.5185 C.ar    1  UNL1        0.0371
      3 C         145.1572  142.4717  158.9391 C.ar    1  UNL1        0.0089
      4 C         144.3744  141.6760  159.9411 C.ar    1  UNL1        0.0674
      5 C         143.6899  140.4086  159.5226 C.ar    1  UNL1        0.0553
      6 C         143.7881  139.9370  158.1021 C.ar    1  UNL1        0.0515
      7 N         142.9070  139.6129  160.5247 N.pl3   1  UNL1       -0.3073
      8 C         143.6222  138.8476  161.5983 C.3     1  UNL1        0.0909
      9 C         142.8393  138.0518  162.6004 C.3     1  UNL1        0.0252
     10 C         141.3414  138.0215  162.5287 C.3     1  UNL1        0.0472
     11 C         140.6262  138.7869  161.4550 C.3     1  UNL1        0.0252
     12 C         141.4090  139.5825  160.4530 C.3     1  UNL1        0.0909
     13 C         140.5585  137.2258  163.5307 C.3     1  UNL1        0.2071
     14 O         139.2079  137.7022  163.9765 O.3     1  UNL1       -0.4602
     15 C         139.0401  138.3174  165.3342 C.ar    1  UNL1        0.2245
     16 C         140.0898  139.2436  165.8729 C.ar    1  UNL1        0.0535
     17 C         139.9219  139.8588  167.2306 C.ar    1  UNL1       -0.0160
     18 C         138.7044  139.5477  168.0496 C.ar    1  UNL1        0.0166
     19 C         137.6547  138.6215  167.5110 C.ar    1  UNL1        0.1017
     20 N         137.8226  138.0063  166.1533 N.ar    1  UNL1       -0.2102
     21 C         140.9717  140.7851  167.7693 C.3     1  UNL1        0.0281
     22 C         140.5716  141.9790  168.5844 C.3     1  UNL1        0.0044
     23 C         140.2928  143.4494  168.6843 C.3     1  UNL1        0.0003
     24 C         140.1573  142.5764  169.8965 C.3     1  UNL1        0.0003
     25 C         142.4215  140.5174  167.4928 C.3     1  UNL1        0.0460
     26 C         142.9887  139.1481  167.7238 C.2     1  UNL1        0.0507
     27 O         143.4976  138.3420  166.5657 O.co2   1  UNL1       -0.5492
     28 O         143.0470  138.5850  169.1128 O.co2   1  UNL1       -0.5492
     29 C         144.2762  142.1477  161.3616 C.2     1  UNL1        0.2550
     30 O         145.3121  141.7315  162.3634 O.2     1  UNL1       -0.2695
     31 N         143.1420  143.0355  161.7803 N.am    1  UNL1       -0.2403
     32 C         142.1060  143.4517  160.7785 C.ar    1  UNL1        0.1372
     33 C         140.7526  142.8051  160.7865 C.ar    1  UNL1        0.0347
     34 C         139.7166  143.2212  159.7848 C.ar    1  UNL1        0.0041
     35 C         140.0340  144.2841  158.7750 C.ar    1  UNL1        0.0148
     36 C         141.3875  144.9308  158.7670 C.ar    1  UNL1        0.0608
     37 C         141.7049  145.9936  157.7573 C.3     1  UNL1        0.0521
     38 N         142.4235  144.5146  159.7688 N.ar    1  UNL1       -0.2346
     39 C         143.0438  143.5072  163.2009 C.3     1  UNL1        0.0998
     40 C         141.8102  143.2176  164.0037 C.3     1  UNL1        0.0187
     41 C         142.1897  141.7676  164.0637 C.3     1  UNL1        0.0017
     42 C         141.4307  144.6675  163.9437 C.3     1  UNL1        0.0017
     43 C         140.5767  142.9279  164.8065 C.3     1  UNL1        0.0017
     44 C         143.5163  139.5385  155.0478 C.3     1  UNL1        0.2525
     45 O         144.6691  140.2610  155.6795 O.3     1  UNL1       -0.4714
@<TRIPOS>UNITY_ATOM_ATTR
27 1
charge -1
@<TRIPOS>BOND
     1    44    45    1
     2    45     1    1
     3     1     2   ar
     4     2     3   ar
     5     3     4   ar
     6     4    29    1
     7    29    30    2
     8    29    31   am
     9    31    39    1
    10    39    40    1
    11    40    41    1
    12    40    42    1
    13    40    43    1
    14    31    32    1
    15    32    33   ar
    16    33    34   ar
    17    34    35   ar
    18    35    36   ar
    19    36    37    1
    20    36    38   ar
    21     4     5   ar
    22     5     7    1
    23     7     8    1
    24     8     9    1
    25     9    10    1
    26    10    13    1
    27    13    14    1
    28    14    15    1
    29    15    16   ar
    30    16    17   ar
    31    17    21    1
    32    21    25    1
    33    25    26    1
    34    26    27   ar
    35    26    28   ar
    36    21    22    1
    37    22    23    1
    38    23    24    1
    39    17    18   ar
    40    18    19   ar
    41    19    20   ar
    42    10    11    1
    43    11    12    1
    44     5     6   ar
    45     6     1   ar
    46    38    32   ar
    47    12     7    1
    48    20    15   ar
    49    24    22    1
