@<TRIPOS>MOLECULE
*****
 33 36 0 0 0
SMALL
GASTEIGER

@<TRIPOS>ATOM
      1 C         140.2901  145.4706  160.0585 C.3     1  UNL1        0.0908
      2 C         139.7352  144.5437  162.4213 C.2     1  UNL1        0.2315
      3 O         138.4144  145.2540  162.3898 O.2     1  UNL1       -0.2744
      4 N         140.6730  144.6520  161.2557 N.am    1  UNL1       -0.3037
      5 H         141.5399  144.1858  161.2764 H       1  UNL1        0.1494
      6 C         138.6528  144.9797  165.4690 C.3     1  UNL1        0.0481
      7 C         139.6206  143.9256  165.0194 C.2     1  UNL1        0.0496
      8 N         140.2608  142.8867  165.8917 N.2     1  UNL1       -0.2534
      9 C         141.1540  142.0443  165.0300 C.2     1  UNL1        0.0771
     10 C         141.0658  142.5624  163.6251 C.2     1  UNL1        0.0073
     11 C         140.1181  143.7251  163.6186 C.3     1  UNL1        0.1357
     12 C         141.9888  140.8868  165.4921 C.ar    1  UNL1        0.0173
     13 C         141.7821  140.3128  166.8624 C.ar    1  UNL1        0.0015
     14 C         142.6169  139.1554  167.3244 C.ar    1  UNL1        0.0000
     15 C         143.6583  138.5720  166.4162 C.ar    1  UNL1        0.0000
     16 C         143.8650  139.1460  165.0458 C.ar    1  UNL1        0.0000
     17 C         143.0302  140.3034  164.5838 C.ar    1  UNL1        0.0015
     18 C         140.2810  144.8461  158.6947 C.3     1  UNL1        0.0386
     19 C         139.5926  143.5315  158.4764 C.3     1  UNL1        0.0739
     20 N         139.6781  142.4575  159.5202 N.3     1  UNL1       -0.2697
     21 C         138.4551  142.0663  160.2955 C.3     1  UNL1        0.0938
     22 C         138.5406  140.9923  161.3393 C.3     1  UNL1        0.1081
     23 N         139.8490  140.3096  161.6077 N.pl3   1  UNL1       -0.3040
     24 C         141.0719  140.7010  160.8322 C.3     1  UNL1        0.1081
     25 C         140.9865  141.7749  159.7885 C.3     1  UNL1        0.0938
     26 C         139.9344  139.2357  162.6514 C.ar    1  UNL1        0.0594
     27 C         140.9045  138.1038  162.4852 C.ar    1  UNL1        0.0154
     28 C         140.9900  137.0299  163.5289 C.ar    1  UNL1        0.0022
     29 C         140.1054  137.0879  164.7389 C.ar    1  UNL1        0.0123
     30 C         139.1353  138.2199  164.9051 C.ar    1  UNL1        0.0694
     31 CL        138.2507  138.2779  166.1151 Cl      1  UNL1       -0.0813
     32 C         139.0498  139.2938  163.8614 C.ar    1  UNL1        0.0815
     33 CL        138.0797  140.4257  164.0276 Cl      1  UNL1       -0.0801
@<TRIPOS>BOND
     1     6     7    1
     2     7     8    2
     3     8     9    1
     4     9    12    1
     5    12    13   ar
     6    13    14   ar
     7    14    15   ar
     8    15    16   ar
     9    16    17   ar
    10     9    10    2
    11    10    11    1
    12    11     2    1
    13     2     3    2
    14     2     4   am
    15     4     1    1
    16     1    18    1
    17    18    19    1
    18    19    20    1
    19    20    21    1
    20    21    22    1
    21    22    23    1
    22    23    26    1
    23    26    27   ar
    24    27    28   ar
    25    28    29   ar
    26    29    30   ar
    27    30    31    1
    28    30    32   ar
    29    32    33    1
    30    23    24    1
    31    24    25    1
    32    11     7    1
    33    25    20    1
    34    17    12   ar
    35    32    26   ar
    36     4     5    1
@<TRIPOS>MOLECULE
*****
 33 36 0 0 0
SMALL
GASTEIGER

@<TRIPOS>ATOM
      1 C         140.7607  145.5212  159.6822 C.3     1  UNL1        0.0908
      2 C         140.7629  144.9144  162.2084 C.2     1  UNL1        0.2315
      3 O         139.5545  145.7783  162.4169 O.2     1  UNL1       -0.2744
      4 N         141.3660  144.7858  160.8410 N.am    1  UNL1       -0.3037
      5 H         142.1591  144.2188  160.7042 H       1  UNL1        0.1494
      6 C         143.8848  145.0532  163.1488 C.3     1  UNL1        0.0481
      7 C         142.8032  144.2428  163.7995 C.2     1  UNL1        0.0496
      8 N         142.9666  143.3540  164.9967 N.2     1  UNL1       -0.2534
      9 C         141.6326  142.7409  165.3044 C.2     1  UNL1        0.0771
     10 C         140.6448  143.2508  164.2973 C.2     1  UNL1        0.0073
     11 C         141.3682  144.1790  163.3673 C.3     1  UNL1        0.1357
     12 C         141.3383  141.7856  166.4228 C.ar    1  UNL1        0.0173
     13 C         142.4296  141.3776  167.3674 C.ar    1  UNL1        0.0015
     14 C         142.1352  140.4223  168.4858 C.ar    1  UNL1        0.0000
     15 C         140.7494  139.8750  168.6595 C.ar    1  UNL1        0.0000
     16 C         139.6581  140.2830  167.7148 C.ar    1  UNL1        0.0000
     17 C         139.9525  141.2383  166.5965 C.ar    1  UNL1        0.0015
     18 C         140.4506  144.7903  158.4096 C.3     1  UNL1        0.0386
     19 C         139.5403  143.5983  158.4320 C.3     1  UNL1        0.0739
     20 N         139.6501  142.5914  159.5384 N.3     1  UNL1       -0.2697
     21 C         140.7894  141.6158  159.5541 C.3     1  UNL1        0.0938
     22 C         140.8993  140.6088  160.6605 C.3     1  UNL1        0.1081
     23 N         139.8699  140.5774  161.7511 N.pl3   1  UNL1       -0.3040
     24 C         138.7306  141.5531  161.7352 C.3     1  UNL1        0.1081
     25 C         138.6208  142.5600  160.6289 C.3     1  UNL1        0.0938
     26 C         139.9797  139.5705  162.8574 C.ar    1  UNL1        0.0594
     27 C         138.7923  138.7331  163.2300 C.ar    1  UNL1        0.0154
     28 C         138.9022  137.7262  164.3363 C.ar    1  UNL1        0.0022
     29 C         140.1995  137.5566  165.0700 C.ar    1  UNL1        0.0123
     30 C         141.3869  138.3939  164.6974 C.ar    1  UNL1        0.0694
     31 CL        142.6841  138.2242  165.4310 Cl      1  UNL1       -0.0813
     32 C         141.2771  139.4008  163.5911 C.ar    1  UNL1        0.0815
     33 CL        142.4644  140.2382  163.2183 Cl      1  UNL1       -0.0801
@<TRIPOS>BOND
     1     6     7    1
     2     7     8    2
     3     8     9    1
     4     9    12    1
     5    12    13   ar
     6    13    14   ar
     7    14    15   ar
     8    15    16   ar
     9    16    17   ar
    10     9    10    2
    11    10    11    1
    12    11     2    1
    13     2     3    2
    14     2     4   am
    15     4     1    1
    16     1    18    1
    17    18    19    1
    18    19    20    1
    19    20    21    1
    20    21    22    1
    21    22    23    1
    22    23    26    1
    23    26    27   ar
    24    27    28   ar
    25    28    29   ar
    26    29    30   ar
    27    30    31    1
    28    30    32   ar
    29    32    33    1
    30    23    24    1
    31    24    25    1
    32    11     7    1
    33    25    20    1
    34    17    12   ar
    35    32    26   ar
    36     4     5    1
@<TRIPOS>MOLECULE
*****
 33 36 0 0 0
SMALL
GASTEIGER

@<TRIPOS>ATOM
      1 C         142.5870  144.3311  157.9711 C.3     1  UNL1        0.0908
      2 C         141.1042  144.1145  160.0935 C.2     1  UNL1        0.2315
      3 O         139.9398  143.7104  159.2387 O.2     1  UNL1       -0.2744
      4 N         142.4278  144.4249  159.4597 N.am    1  UNL1       -0.3037
      5 H         143.1921  144.6901  160.0208 H       1  UNL1        0.1494
      6 C         139.5902  146.5088  161.7137 C.3     1  UNL1        0.0481
      7 C         140.2491  145.3089  162.3268 C.2     1  UNL1        0.0496
      8 N         140.3278  144.9987  163.7922 N.2     1  UNL1       -0.2534
      9 C         141.0723  143.7065  163.9533 C.2     1  UNL1        0.0771
     10 C         141.4538  143.2180  162.5873 C.2     1  UNL1        0.0073
     11 C         140.9450  144.2083  161.5821 C.3     1  UNL1        0.1357
     12 C         141.3812  143.0229  165.2523 C.ar    1  UNL1        0.0173
     13 C         142.8067  142.7983  165.6612 C.ar    1  UNL1        0.0015
     14 C         143.1155  142.1146  166.9601 C.ar    1  UNL1        0.0000
     15 C         141.9987  141.6556  167.8501 C.ar    1  UNL1        0.0000
     16 C         140.5732  141.8802  167.4412 C.ar    1  UNL1        0.0000
     17 C         140.2644  142.5638  166.1422 C.ar    1  UNL1        0.0015
     18 C         143.3303  143.1764  157.3676 C.3     1  UNL1        0.0386
     19 C         144.4800  142.5568  158.1050 C.3     1  UNL1        0.0739
     20 N         144.2492  141.8853  159.4264 N.3     1  UNL1       -0.2697
     21 C         144.8388  142.4678  160.6766 C.3     1  UNL1        0.0938
     22 C         144.6080  141.7964  161.9981 C.3     1  UNL1        0.1081
     23 N         143.7878  140.5425  162.0691 N.pl3   1  UNL1       -0.3040
     24 C         143.1983  139.9601  160.8188 C.3     1  UNL1        0.1081
     25 C         143.4290  140.6315  159.4974 C.3     1  UNL1        0.0938
     26 C         143.5570  139.8711  163.3905 C.ar    1  UNL1        0.0594
     27 C         144.7252  139.4314  164.2224 C.ar    1  UNL1        0.0154
     28 C         144.4944  138.7600  165.5437 C.ar    1  UNL1        0.0022
     29 C         143.0955  138.5283  166.0331 C.ar    1  UNL1        0.0123
     30 C         141.9274  138.9680  165.2012 C.ar    1  UNL1        0.0694
     31 CL        140.5286  138.7363  165.6906 Cl      1  UNL1       -0.0813
     32 C         142.1581  139.6394  163.8799 C.ar    1  UNL1        0.0815
     33 CL        140.9901  140.0792  163.0478 Cl      1  UNL1       -0.0801
@<TRIPOS>BOND
     1     6     7    1
     2     7     8    2
     3     8     9    1
     4     9    12    1
     5    12    13   ar
     6    13    14   ar
     7    14    15   ar
     8    15    16   ar
     9    16    17   ar
    10     9    10    2
    11    10    11    1
    12    11     2    1
    13     2     3    2
    14     2     4   am
    15     4     1    1
    16     1    18    1
    17    18    19    1
    18    19    20    1
    19    20    21    1
    20    21    22    1
    21    22    23    1
    22    23    26    1
    23    26    27   ar
    24    27    28   ar
    25    28    29   ar
    26    29    30   ar
    27    30    31    1
    28    30    32   ar
    29    32    33    1
    30    23    24    1
    31    24    25    1
    32    11     7    1
    33    25    20    1
    34    17    12   ar
    35    32    26   ar
    36     4     5    1
@<TRIPOS>MOLECULE
*****
 33 36 0 0 0
SMALL
GASTEIGER

@<TRIPOS>ATOM
      1 C         143.7019  140.8488  157.7325 C.3     1  UNL1        0.0908
      2 C         142.4989  139.3778  159.5042 C.2     1  UNL1        0.2315
      3 O         143.7491  138.5679  159.6806 O.2     1  UNL1       -0.2744
      4 N         142.4753  140.5182  158.5301 N.am    1  UNL1       -0.3037
      5 H         141.6548  141.0498  158.4144 H       1  UNL1        0.1494
      6 C         139.6773  138.2567  158.3079 C.3     1  UNL1        0.0481
      7 C         139.9753  138.5319  159.7520 C.2     1  UNL1        0.0496
      8 N         139.0289  138.3402  160.8997 N.2     1  UNL1       -0.2534
      9 C         139.7408  138.7370  162.1590 C.2     1  UNL1        0.0771
     10 C         141.1274  139.1740  161.7895 C.2     1  UNL1        0.0073
     11 C         141.2723  139.0472  160.3019 C.3     1  UNL1        0.1357
     12 C         139.1670  138.7028  163.5445 C.ar    1  UNL1        0.0173
     13 C         138.6599  139.9645  164.1776 C.ar    1  UNL1        0.0015
     14 C         138.0861  139.9302  165.5631 C.ar    1  UNL1        0.0000
     15 C         138.0193  138.6343  166.3154 C.ar    1  UNL1        0.0000
     16 C         138.5264  137.3726  165.6823 C.ar    1  UNL1        0.0000
     17 C         139.1002  137.4068  164.2968 C.ar    1  UNL1        0.0015
     18 C         144.6068  141.9605  158.1743 C.3     1  UNL1        0.0386
     19 C         144.1296  142.9582  159.1874 C.3     1  UNL1        0.0739
     20 N         143.8230  142.5171  160.5880 N.3     1  UNL1       -0.2697
     21 C         144.7727  141.6107  161.3135 C.3     1  UNL1        0.0938
     22 C         144.4663  141.1695  162.7141 C.3     1  UNL1        0.1081
     23 N         143.2101  141.6348  163.3891 N.pl3   1  UNL1       -0.3040
     24 C         142.2604  142.5412  162.6634 C.3     1  UNL1        0.1081
     25 C         142.5669  142.9824  161.2629 C.3     1  UNL1        0.0938
     26 C         142.9036  141.1937  164.7896 C.ar    1  UNL1        0.0594
     27 C         142.1738  139.9049  165.0272 C.ar    1  UNL1        0.0154
     28 C         141.8673  139.4638  166.4277 C.ar    1  UNL1        0.0022
     29 C         142.2907  140.3114  167.5906 C.ar    1  UNL1        0.0123
     30 C         143.0205  141.6002  167.3530 C.ar    1  UNL1        0.0694
     31 CL        143.4439  142.4477  168.5158 Cl      1  UNL1       -0.0813
     32 C         143.3270  142.0413  165.9525 C.ar    1  UNL1        0.0815
     33 CL        144.0569  143.3300  165.7147 Cl      1  UNL1       -0.0801
@<TRIPOS>BOND
     1     6     7    1
     2     7     8    2
     3     8     9    1
     4     9    12    1
     5    12    13   ar
     6    13    14   ar
     7    14    15   ar
     8    15    16   ar
     9    16    17   ar
    10     9    10    2
    11    10    11    1
    12    11     2    1
    13     2     3    2
    14     2     4   am
    15     4     1    1
    16     1    18    1
    17    18    19    1
    18    19    20    1
    19    20    21    1
    20    21    22    1
    21    22    23    1
    22    23    26    1
    23    26    27   ar
    24    27    28   ar
    25    28    29   ar
    26    29    30   ar
    27    30    31    1
    28    30    32   ar
    29    32    33    1
    30    23    24    1
    31    24    25    1
    32    11     7    1
    33    25    20    1
    34    17    12   ar
    35    32    26   ar
    36     4     5    1
@<TRIPOS>MOLECULE
*****
 33 36 0 0 0
SMALL
GASTEIGER

@<TRIPOS>ATOM
      1 C         138.5047  143.3089  157.1402 C.3     1  UNL1        0.0908
      2 C         138.1895  141.0618  158.4056 C.2     1  UNL1        0.2315
      3 O         137.1478  140.6469  157.4092 O.2     1  UNL1       -0.2744
      4 N         138.8680  142.3928  158.2711 N.am    1  UNL1       -0.3037
      5 H         139.5516  142.6651  158.9250 H       1  UNL1        0.1494
      6 C         139.8893  138.2872  158.1563 C.3     1  UNL1        0.0481
      7 C         139.3341  138.8703  159.4218 C.2     1  UNL1        0.0496
      8 N         139.4626  138.2806  160.7950 N.2     1  UNL1       -0.2534
      9 C         138.7608  139.1914  161.7583 C.2     1  UNL1        0.0771
     10 C         138.1984  140.3441  160.9804 C.2     1  UNL1        0.0073
     11 C         138.5527  140.1457  159.5365 C.3     1  UNL1        0.1357
     12 C         138.6421  138.9856  163.2394 C.ar    1  UNL1        0.0173
     13 C         138.9288  137.6390  163.8349 C.ar    1  UNL1        0.0015
     14 C         138.8101  137.4333  165.3159 C.ar    1  UNL1        0.0000
     15 C         138.4047  138.5741  166.2015 C.ar    1  UNL1        0.0000
     16 C         138.1180  139.9206  165.6060 C.ar    1  UNL1        0.0000
     17 C         138.2367  140.1264  164.1250 C.ar    1  UNL1        0.0015
     18 C         139.5662  144.1288  156.4686 C.3     1  UNL1        0.0386
     19 C         140.3279  145.1564  157.2519 C.3     1  UNL1        0.0739
     20 N         140.8989  144.8051  158.5939 N.3     1  UNL1       -0.2697
     21 C         140.3148  145.4061  159.8379 C.3     1  UNL1        0.0938
     22 C         140.8856  145.0549  161.1799 C.3     1  UNL1        0.1081
     23 N         142.0406  144.1027  161.2778 N.pl3   1  UNL1       -0.3040
     24 C         142.6246  143.5018  160.0337 C.3     1  UNL1        0.1081
     25 C         142.0537  143.8530  158.6917 C.3     1  UNL1        0.0938
     26 C         142.6114  143.7516  162.6197 C.ar    1  UNL1        0.0594
     27 C         143.5707  144.6866  163.2947 C.ar    1  UNL1        0.0154
     28 C         144.1415  144.3354  164.6366 C.ar    1  UNL1        0.0022
     29 C         143.7531  143.0492  165.3036 C.ar    1  UNL1        0.0123
     30 C         142.7938  142.1142  164.6286 C.ar    1  UNL1        0.0694
     31 CL        142.4055  140.8280  165.2956 Cl      1  UNL1       -0.0813
     32 C         142.2230  142.4653  163.2867 C.ar    1  UNL1        0.0815
     33 CL        141.2637  141.5304  162.6116 Cl      1  UNL1       -0.0801
@<TRIPOS>BOND
     1     6     7    1
     2     7     8    2
     3     8     9    1
     4     9    12    1
     5    12    13   ar
     6    13    14   ar
     7    14    15   ar
     8    15    16   ar
     9    16    17   ar
    10     9    10    2
    11    10    11    1
    12    11     2    1
    13     2     3    2
    14     2     4   am
    15     4     1    1
    16     1    18    1
    17    18    19    1
    18    19    20    1
    19    20    21    1
    20    21    22    1
    21    22    23    1
    22    23    26    1
    23    26    27   ar
    24    27    28   ar
    25    28    29   ar
    26    29    30   ar
    27    30    31    1
    28    30    32   ar
    29    32    33    1
    30    23    24    1
    31    24    25    1
    32    11     7    1
    33    25    20    1
    34    17    12   ar
    35    32    26   ar
    36     4     5    1
@<TRIPOS>MOLECULE
*****
 33 36 0 0 0
SMALL
GASTEIGER

@<TRIPOS>ATOM
      1 C         144.3120  142.4834  159.9892 C.3     1  UNL1        0.0908
      2 C         144.4576  142.2871  162.5758 C.2     1  UNL1        0.2315
      3 O         145.8608  141.7704  162.4575 O.2     1  UNL1       -0.2744
      4 N         143.6832  142.6436  161.3416 N.am    1  UNL1       -0.3037
      5 H         142.7623  142.9828  161.4192 H       1  UNL1        0.1494
      6 C         142.6208  144.8019  163.5513 C.3     1  UNL1        0.0481
      7 C         142.9845  143.6033  164.3766 C.2     1  UNL1        0.0496
      8 N         142.5679  143.3502  165.7951 N.2     1  UNL1       -0.2534
      9 C         143.1546  142.0378  166.2234 C.2     1  UNL1        0.0771
     10 C         143.9339  141.4798  165.0696 C.2     1  UNL1        0.0073
     11 C         143.8288  142.4474  163.9282 C.3     1  UNL1        0.1357
     12 C         142.9908  141.3960  167.5693 C.ar    1  UNL1        0.0173
     13 C         143.1033  142.2252  168.8142 C.ar    1  UNL1        0.0015
     14 C         142.9394  141.5834  170.1600 C.ar    1  UNL1        0.0000
     15 C         142.6631  140.1125  170.2609 C.ar    1  UNL1        0.0000
     16 C         142.5506  139.2834  169.0160 C.ar    1  UNL1        0.0000
     17 C         142.7145  139.9252  167.6702 C.ar    1  UNL1        0.0015
     18 C         143.9733  141.2936  159.1408 C.3     1  UNL1        0.0386
     19 C         142.5888  140.7177  159.1752 C.3     1  UNL1        0.0739
     20 N         141.9127  140.4680  160.4908 N.3     1  UNL1       -0.2697
     21 C         140.6506  141.2012  160.8363 C.3     1  UNL1        0.0938
     22 C         139.9744  140.9516  162.1519 C.3     1  UNL1        0.1081
     23 N         140.5604  139.9688  163.1218 N.pl3   1  UNL1       -0.3040
     24 C         141.8226  139.2357  162.7761 C.3     1  UNL1        0.1081
     25 C         142.4987  139.4853  161.4606 C.3     1  UNL1        0.0938
     26 C         139.8843  139.7192  164.4373 C.ar    1  UNL1        0.0594
     27 C         139.9556  140.7499  165.5247 C.ar    1  UNL1        0.0154
     28 C         139.2794  140.5003  166.8402 C.ar    1  UNL1        0.0022
     29 C         138.5321  139.2199  167.0683 C.ar    1  UNL1        0.0123
     30 C         138.4608  138.1891  165.9809 C.ar    1  UNL1        0.0694
     31 CL        137.7135  136.9088  166.2090 Cl      1  UNL1       -0.0813
     32 C         139.1369  138.4387  164.6654 C.ar    1  UNL1        0.0815
     33 CL        139.0657  137.4080  163.5779 Cl      1  UNL1       -0.0801
@<TRIPOS>BOND
     1     6     7    1
     2     7     8    2
     3     8     9    1
     4     9    12    1
     5    12    13   ar
     6    13    14   ar
     7    14    15   ar
     8    15    16   ar
     9    16    17   ar
    10     9    10    2
    11    10    11    1
    12    11     2    1
    13     2     3    2
    14     2     4   am
    15     4     1    1
    16     1    18    1
    17    18    19    1
    18    19    20    1
    19    20    21    1
    20    21    22    1
    21    22    23    1
    22    23    26    1
    23    26    27   ar
    24    27    28   ar
    25    28    29   ar
    26    29    30   ar
    27    30    31    1
    28    30    32   ar
    29    32    33    1
    30    23    24    1
    31    24    25    1
    32    11     7    1
    33    25    20    1
    34    17    12   ar
    35    32    26   ar
    36     4     5    1
@<TRIPOS>MOLECULE
*****
 33 36 0 0 0
SMALL
GASTEIGER

@<TRIPOS>ATOM
      1 C         144.1095  140.4059  157.7102 C.3     1  UNL1        0.0908
      2 C         142.4699  139.4915  159.5062 C.2     1  UNL1        0.2315
      3 O         141.3708  139.4586  158.4860 O.2     1  UNL1       -0.2744
      4 N         143.8392  139.9652  159.1183 N.am    1  UNL1       -0.3037
      5 H         144.5606  139.9868  159.7879 H       1  UNL1        0.1494
      6 C         144.3229  137.4668  161.2716 C.3     1  UNL1        0.0481
      7 C         143.0515  138.1202  161.7258 C.2     1  UNL1        0.0496
      8 N         142.4084  137.9576  163.0712 N.2     1  UNL1       -0.2534
      9 C         141.1593  138.7879  163.0913 C.2     1  UNL1        0.0771
     10 C         141.0303  139.4635  161.7583 C.2     1  UNL1        0.0073
     11 C         142.1997  139.0509  160.9144 C.3     1  UNL1        0.1357
     12 C         140.2064  138.9193  164.2424 C.ar    1  UNL1        0.0173
     13 C         140.1568  140.1929  165.0332 C.ar    1  UNL1        0.0015
     14 C         139.2040  140.3243  166.1842 C.ar    1  UNL1        0.0000
     15 C         138.3008  139.1822  166.5443 C.ar    1  UNL1        0.0000
     16 C         138.3504  137.9086  165.7535 C.ar    1  UNL1        0.0000
     17 C         139.3032  137.7772  164.6025 C.ar    1  UNL1        0.0015
     18 C         144.2753  141.8639  157.3994 C.3     1  UNL1        0.0386
     19 C         144.2761  142.8721  158.5099 C.3     1  UNL1        0.0739
     20 N         143.1402  142.9106  159.4889 N.3     1  UNL1       -0.2697
     21 C         141.7283  143.0238  158.9953 C.3     1  UNL1        0.0938
     22 C         140.5923  143.0623  159.9742 C.3     1  UNL1        0.1081
     23 N         140.8684  142.9875  161.4467 N.pl3   1  UNL1       -0.3040
     24 C         142.2804  142.8743  161.9402 C.3     1  UNL1        0.1081
     25 C         143.4162  142.8358  160.9613 C.3     1  UNL1        0.0938
     26 C         139.7325  143.0260  162.4256 C.ar    1  UNL1        0.0594
     27 C         138.5959  142.0561  162.2940 C.ar    1  UNL1        0.0154
     28 C         137.4600  142.0945  163.2729 C.ar    1  UNL1        0.0022
     29 C         137.4607  143.1029  164.3834 C.ar    1  UNL1        0.0123
     30 C         138.5974  144.0728  164.5150 C.ar    1  UNL1        0.0694
     31 CL        138.5981  145.0812  165.6254 Cl      1  UNL1       -0.0813
     32 C         139.7332  144.0344  163.5361 C.ar    1  UNL1        0.0815
     33 CL        140.8699  145.0043  163.6676 Cl      1  UNL1       -0.0801
@<TRIPOS>BOND
     1     6     7    1
     2     7     8    2
     3     8     9    1
     4     9    12    1
     5    12    13   ar
     6    13    14   ar
     7    14    15   ar
     8    15    16   ar
     9    16    17   ar
    10     9    10    2
    11    10    11    1
    12    11     2    1
    13     2     3    2
    14     2     4   am
    15     4     1    1
    16     1    18    1
    17    18    19    1
    18    19    20    1
    19    20    21    1
    20    21    22    1
    21    22    23    1
    22    23    26    1
    23    26    27   ar
    24    27    28   ar
    25    28    29   ar
    26    29    30   ar
    27    30    31    1
    28    30    32   ar
    29    32    33    1
    30    23    24    1
    31    24    25    1
    32    11     7    1
    33    25    20    1
    34    17    12   ar
    35    32    26   ar
    36     4     5    1
@<TRIPOS>MOLECULE
*****
 33 36 0 0 0
SMALL
GASTEIGER

@<TRIPOS>ATOM
      1 C         142.9543  140.5646  157.1324 C.3     1  UNL1        0.0908
      2 C         142.3998  142.7487  158.4254 C.2     1  UNL1        0.2315
      3 O         143.7122  143.3354  157.9973 O.2     1  UNL1       -0.2744
      4 N         142.0208  141.3633  157.9930 N.am    1  UNL1       -0.3037
      5 H         141.1594  140.9783  158.2740 H       1  UNL1        0.1494
      6 C         141.0010  145.5848  157.6192 C.3     1  UNL1        0.0481
      7 C         140.8234  144.8511  158.9154 C.2     1  UNL1        0.0496
      8 N         139.9716  145.2922  160.0686 N.2     1  UNL1       -0.2534
      9 C         140.0881  144.2612  161.1519 C.2     1  UNL1        0.0771
     10 C         141.0119  143.1830  160.6682 C.2     1  UNL1        0.0073
     11 C         141.4663  143.5475  159.2860 C.3     1  UNL1        0.1357
     12 C         139.4013  144.3014  162.4849 C.ar    1  UNL1        0.0173
     13 C         137.9995  143.7858  162.6223 C.ar    1  UNL1        0.0015
     14 C         137.3128  143.8260  163.9552 C.ar    1  UNL1        0.0000
     15 C         138.0280  144.3820  165.1508 C.ar    1  UNL1        0.0000
     16 C         139.4298  144.8977  165.0135 C.ar    1  UNL1        0.0000
     17 C         140.1165  144.8574  163.6806 C.ar    1  UNL1        0.0015
     18 C         143.1580  139.1032  157.4025 C.3     1  UNL1        0.0386
     19 C         141.9986  138.2495  157.8227 C.3     1  UNL1        0.0739
     20 N         141.4539  138.3573  159.2162 N.3     1  UNL1       -0.2697
     21 C         142.3482  138.1010  160.3928 C.3     1  UNL1        0.0938
     22 C         141.8035  138.2088  161.7864 C.3     1  UNL1        0.1081
     23 N         140.3646  138.5729  162.0032 N.pl3   1  UNL1       -0.3040
     24 C         139.4704  138.8291  160.8264 C.3     1  UNL1        0.1081
     25 C         140.0150  138.7213  159.4330 C.3     1  UNL1        0.0938
     26 C         139.8200  138.6806  163.3966 C.ar    1  UNL1        0.0594
     27 C         139.1250  137.5082  164.0230 C.ar    1  UNL1        0.0154
     28 C         138.5804  137.6160  165.4164 C.ar    1  UNL1        0.0022
     29 C         138.7307  138.8962  166.1835 C.ar    1  UNL1        0.0123
     30 C         139.4257  140.0687  165.5572 C.ar    1  UNL1        0.0694
     31 CL        139.5761  141.3488  166.3242 Cl      1  UNL1       -0.0813
     32 C         139.9703  139.9609  164.1637 C.ar    1  UNL1        0.0815
     33 CL        140.6654  141.1333  163.5372 Cl      1  UNL1       -0.0801
@<TRIPOS>BOND
     1     6     7    1
     2     7     8    2
     3     8     9    1
     4     9    12    1
     5    12    13   ar
     6    13    14   ar
     7    14    15   ar
     8    15    16   ar
     9    16    17   ar
    10     9    10    2
    11    10    11    1
    12    11     2    1
    13     2     3    2
    14     2     4   am
    15     4     1    1
    16     1    18    1
    17    18    19    1
    18    19    20    1
    19    20    21    1
    20    21    22    1
    21    22    23    1
    22    23    26    1
    23    26    27   ar
    24    27    28   ar
    25    28    29   ar
    26    29    30   ar
    27    30    31    1
    28    30    32   ar
    29    32    33    1
    30    23    24    1
    31    24    25    1
    32    11     7    1
    33    25    20    1
    34    17    12   ar
    35    32    26   ar
    36     4     5    1
@<TRIPOS>MOLECULE
*****
 33 36 0 0 0
SMALL
GASTEIGER

@<TRIPOS>ATOM
      1 C         144.7316  142.3597  157.6553 C.3     1  UNL1        0.0908
      2 C         142.4929  143.6154  158.0571 C.2     1  UNL1        0.2315
      3 O         142.2551  143.6649  156.5770 O.2     1  UNL1       -0.2744
      4 N         143.7312  142.9627  158.5963 N.am    1  UNL1       -0.3037
      5 H         143.8873  142.9302  159.5678 H       1  UNL1        0.1494
      6 C         140.5285  146.1394  157.4088 C.3     1  UNL1        0.0481
      7 C         140.5895  145.3786  158.7001 C.2     1  UNL1        0.0496
      8 N         139.7584  145.6444  159.9201 N.2     1  UNL1       -0.2534
      9 C         140.1476  144.6485  160.9722 C.2     1  UNL1        0.0771
     10 C         141.2193  143.7673  160.4024 C.2     1  UNL1        0.0073
     11 C         141.4925  144.2184  158.9981 C.3     1  UNL1        0.1357
     12 C         139.5670  144.5511  162.3519 C.ar    1  UNL1        0.0173
     13 C         140.3830  144.9663  163.5400 C.ar    1  UNL1        0.0015
     14 C         139.8024  144.8689  164.9196 C.ar    1  UNL1        0.0000
     15 C         138.4058  144.3562  165.1111 C.ar    1  UNL1        0.0000
     16 C         137.5898  143.9410  163.9230 C.ar    1  UNL1        0.0000
     17 C         138.1704  144.0384  162.5434 C.ar    1  UNL1        0.0015
     18 C         144.7717  140.8737  157.4548 C.3     1  UNL1        0.0386
     19 C         143.5271  140.0578  157.6419 C.3     1  UNL1        0.0739
     20 N         142.8365  140.0377  158.9734 N.3     1  UNL1       -0.2697
     21 C         141.3539  140.2512  159.0523 C.3     1  UNL1        0.0938
     22 C         140.6631  140.2311  160.3838 C.3     1  UNL1        0.1081
     23 N         141.4551  139.9977  161.6361 N.pl3   1  UNL1       -0.3040
     24 C         142.9377  139.7843  161.5570 C.3     1  UNL1        0.1081
     25 C         143.6284  139.8043  160.2256 C.3     1  UNL1        0.0938
     26 C         140.7644  139.9777  162.9675 C.ar    1  UNL1        0.0594
     27 C         140.7145  141.2209  163.8053 C.ar    1  UNL1        0.0154
     28 C         140.0238  141.2008  165.1366 C.ar    1  UNL1        0.0022
     29 C         139.3830  139.9376  165.6302 C.ar    1  UNL1        0.0123
     30 C         139.4328  138.6944  164.7924 C.ar    1  UNL1        0.0694
     31 CL        138.7920  137.4312  165.2859 Cl      1  UNL1       -0.0813
     32 C         140.1235  138.7144  163.4610 C.ar    1  UNL1        0.0815
     33 CL        140.1734  137.4712  162.6231 Cl      1  UNL1       -0.0801
@<TRIPOS>BOND
     1     6     7    1
     2     7     8    2
     3     8     9    1
     4     9    12    1
     5    12    13   ar
     6    13    14   ar
     7    14    15   ar
     8    15    16   ar
     9    16    17   ar
    10     9    10    2
    11    10    11    1
    12    11     2    1
    13     2     3    2
    14     2     4   am
    15     4     1    1
    16     1    18    1
    17    18    19    1
    18    19    20    1
    19    20    21    1
    20    21    22    1
    21    22    23    1
    22    23    26    1
    23    26    27   ar
    24    27    28   ar
    25    28    29   ar
    26    29    30   ar
    27    30    31    1
    28    30    32   ar
    29    32    33    1
    30    23    24    1
    31    24    25    1
    32    11     7    1
    33    25    20    1
    34    17    12   ar
    35    32    26   ar
    36     4     5    1
