@<TRIPOS>MOLECULE
*****
 29 32 0 0 0
SMALL
GASTEIGER

@<TRIPOS>ATOM
      1 N         142.5748  141.1550  167.2736 N.pl3   1  UNL1       -0.2784
      2 C         142.7708  141.9917  166.0442 C.3     1  UNL1        0.0950
      3 C         142.8121  141.3415  164.6932 C.3     1  UNL1        0.0375
      4 C         142.6574  139.8544  164.5715 C.3     1  UNL1        0.0610
      5 C         142.4615  139.0177  165.8008 C.3     1  UNL1        0.0375
      6 C         142.4202  139.6679  167.1519 C.3     1  UNL1        0.0950
      7 N         143.7975  144.1584  171.4408 N.pl3   1  UNL1       -0.3277
      8 C         143.0955  143.1857  170.5401 C.ar    1  UNL1        0.2131
      9 N         141.8443  142.4258  170.8676 N.ar    1  UNL1       -0.1121
     10 N         141.4970  141.5726  169.6838 N.ar    1  UNL1       -0.1117
     11 C         142.5335  141.8052  168.6247 C.ar    1  UNL1        0.2194
     12 N         143.5214  142.8022  169.1540 N.ar    1  UNL1       -0.2979
     13 H         143.4387  144.3455  172.3383 H       1  UNL1        0.1451
     14 H         144.6170  144.6098  171.1344 H       1  UNL1        0.1451
     15 H         144.3108  143.1446  168.6756 H       1  UNL1        0.1713
     16 N         142.6987  139.2042  163.2203 N.3     1  UNL1       -0.2705
     17 C         143.9560  138.5368  162.7473 C.3     1  UNL1        0.1046
     18 C         143.9973  137.8865  161.3961 C.3     1  UNL1        0.1595
     19 O         142.7813  137.9037  160.5181 O.3     1  UNL1       -0.3509
     20 C         141.5240  138.5711  160.9912 C.3     1  UNL1        0.1584
     21 C         141.4827  139.2213  162.3422 C.3     1  UNL1        0.0917
     22 C         140.2254  139.8888  162.8153 C.3     1  UNL1        0.0448
     23 C         139.4628  139.3169  163.9735 C.ar    1  UNL1       -0.0207
     24 C         139.3474  137.8300  164.1346 C.ar    1  UNL1       -0.0034
     25 C         138.5848  137.2581  165.2928 C.ar    1  UNL1        0.0111
     26 C         137.9377  138.1730  166.2899 C.ar    1  UNL1        0.0577
     27 CL        137.1751  137.6011  167.4481 Cl      1  UNL1       -0.0822
     28 C         138.0531  139.6599  166.1287 C.ar    1  UNL1        0.0111
     29 C         138.8157  140.2318  164.9706 C.ar    1  UNL1       -0.0034
@<TRIPOS>BOND
     1     7     8    1
     2     8     9   ar
     3     9    10   ar
     4    10    11   ar
     5    11     1    1
     6     1     2    1
     7     2     3    1
     8     3     4    1
     9     4    16    1
    10    16    17    1
    11    17    18    1
    12    18    19    1
    13    19    20    1
    14    20    21    1
    15    21    22    1
    16    22    23    1
    17    23    24   ar
    18    24    25   ar
    19    25    26   ar
    20    26    27    1
    21    26    28   ar
    22    28    29   ar
    23     4     5    1
    24     5     6    1
    25    11    12   ar
    26    12     8   ar
    27     6     1    1
    28    21    16    1
    29    29    23   ar
    30     7    13    1
    31     7    14    1
    32    12    15    1
@<TRIPOS>MOLECULE
*****
 29 32 0 0 0
SMALL
GASTEIGER

@<TRIPOS>ATOM
      1 N         139.6797  139.8203  166.8380 N.pl3   1  UNL1       -0.2784
      2 C         140.1802  140.8849  165.9074 C.3     1  UNL1        0.0950
      3 C         139.9550  140.7560  164.4300 C.3     1  UNL1        0.0375
      4 C         139.2293  139.5626  163.8832 C.3     1  UNL1        0.0610
      5 C         138.7288  138.4980  164.8138 C.3     1  UNL1        0.0375
      6 C         138.9540  138.6268  166.2912 C.3     1  UNL1        0.0950
      7 N         142.0193  140.5288  171.5183 N.pl3   1  UNL1       -0.3277
      8 C         140.9802  140.2748  170.4667 C.ar    1  UNL1        0.2131
      9 N         139.5223  140.0200  170.7111 N.ar    1  UNL1       -0.1121
     10 N         138.8577  139.8187  169.3815 N.ar    1  UNL1       -0.1117
     11 C         139.9048  139.9491  168.3154 C.ar    1  UNL1        0.2194
     12 N         141.2166  140.2310  168.9861 N.ar    1  UNL1       -0.2979
     13 H         141.7651  140.5380  172.4694 H       1  UNL1        0.1451
     14 H         142.9554  140.6863  171.2574 H       1  UNL1        0.1451
     15 H         142.0809  140.3640  168.5339 H       1  UNL1        0.1713
     16 N         139.0042  139.4337  162.4058 N.3     1  UNL1       -0.2705
     17 C         137.8059  140.0750  161.7710 C.3     1  UNL1        0.1046
     18 C         137.5807  139.9461  160.2936 C.3     1  UNL1        0.1595
     19 O         138.5539  139.1760  159.4510 O.3     1  UNL1       -0.3509
     20 C         139.7522  138.5348  160.0858 C.3     1  UNL1        0.1584
     21 C         139.9773  138.6636  161.5632 C.3     1  UNL1        0.0917
     22 C         141.1756  138.0224  162.1981 C.3     1  UNL1        0.0448
     23 C         142.3580  138.8604  162.5848 C.ar    1  UNL1       -0.0207
     24 C         142.8997  139.8803  161.6274 C.ar    1  UNL1       -0.0034
     25 C         144.0821  140.7183  162.0141 C.ar    1  UNL1        0.0111
     26 C         144.7228  140.5365  163.3582 C.ar    1  UNL1        0.0577
     27 CL        145.9053  141.3745  163.7450 Cl      1  UNL1       -0.0822
     28 C         144.1811  139.5166  164.3155 C.ar    1  UNL1        0.0111
     29 C         142.9987  138.6786  163.9288 C.ar    1  UNL1       -0.0034
@<TRIPOS>BOND
     1     7     8    1
     2     8     9   ar
     3     9    10   ar
     4    10    11   ar
     5    11     1    1
     6     1     2    1
     7     2     3    1
     8     3     4    1
     9     4    16    1
    10    16    17    1
    11    17    18    1
    12    18    19    1
    13    19    20    1
    14    20    21    1
    15    21    22    1
    16    22    23    1
    17    23    24   ar
    18    24    25   ar
    19    25    26   ar
    20    26    27    1
    21    26    28   ar
    22    28    29   ar
    23     4     5    1
    24     5     6    1
    25    11    12   ar
    26    12     8   ar
    27     6     1    1
    28    21    16    1
    29    29    23   ar
    30     7    13    1
    31     7    14    1
    32    12    15    1
@<TRIPOS>MOLECULE
*****
 29 32 0 0 0
SMALL
GASTEIGER

@<TRIPOS>ATOM
      1 N         142.5063  141.0336  167.4634 N.pl3   1  UNL1       -0.2784
      2 C         142.5337  139.5353  167.3974 C.3     1  UNL1        0.0950
      3 C         142.5536  138.8435  166.0667 C.3     1  UNL1        0.0375
      4 C         142.5460  139.6499  164.8019 C.3     1  UNL1        0.0610
      5 C         142.5186  141.1482  164.8679 C.3     1  UNL1        0.0375
      6 C         142.4988  141.8400  166.1986 C.3     1  UNL1        0.0950
      7 N         143.7389  144.2338  171.4785 N.pl3   1  UNL1       -0.3277
      8 C         143.0530  143.1965  170.6397 C.ar    1  UNL1        0.2131
      9 N         141.8587  142.3840  171.0443 N.ar    1  UNL1       -0.1121
     10 N         141.5086  141.4749  169.9037 N.ar    1  UNL1       -0.1117
     11 C         142.4864  141.7255  168.7942 C.ar    1  UNL1        0.2194
     12 N         143.4409  142.7895  169.2491 N.ar    1  UNL1       -0.2979
     13 H         143.4081  144.4317  172.3844 H       1  UNL1        0.1451
     14 H         144.5198  144.7166  171.1231 H       1  UNL1        0.1451
     15 H         144.1904  143.1563  168.7266 H       1  UNL1        0.1713
     16 N         142.5659  138.9580  163.4711 N.3     1  UNL1       -0.2705
     17 C         143.8724  138.6895  162.7848 C.3     1  UNL1        0.1046
     18 C         143.8922  137.9976  161.4541 C.3     1  UNL1        0.1595
     19 O         142.6056  137.5742  160.8096 O.3     1  UNL1       -0.3509
     20 C         141.2991  137.8427  161.4960 C.3     1  UNL1        0.1584
     21 C         141.2793  138.5346  162.8267 C.3     1  UNL1        0.0917
     22 C         139.9728  138.8031  163.5131 C.3     1  UNL1        0.0448
     23 C         139.3577  140.1695  163.4467 C.ar    1  UNL1       -0.0207
     24 C         139.3455  140.9244  162.1505 C.ar    1  UNL1       -0.0034
     25 C         138.7304  142.2909  162.0841 C.ar    1  UNL1        0.0111
     26 C         138.1274  142.9025  163.3140 C.ar    1  UNL1        0.0577
     27 CL        137.5123  144.2689  163.2476 Cl      1  UNL1       -0.0822
     28 C         138.1396  142.1476  164.6101 C.ar    1  UNL1        0.0111
     29 C         138.7548  140.7812  164.6765 C.ar    1  UNL1       -0.0034
@<TRIPOS>BOND
     1     7     8    1
     2     8     9   ar
     3     9    10   ar
     4    10    11   ar
     5    11     1    1
     6     1     2    1
     7     2     3    1
     8     3     4    1
     9     4    16    1
    10    16    17    1
    11    17    18    1
    12    18    19    1
    13    19    20    1
    14    20    21    1
    15    21    22    1
    16    22    23    1
    17    23    24   ar
    18    24    25   ar
    19    25    26   ar
    20    26    27    1
    21    26    28   ar
    22    28    29   ar
    23     4     5    1
    24     5     6    1
    25    11    12   ar
    26    12     8   ar
    27     6     1    1
    28    21    16    1
    29    29    23   ar
    30     7    13    1
    31     7    14    1
    32    12    15    1
@<TRIPOS>MOLECULE
*****
 29 32 0 0 0
SMALL
GASTEIGER

@<TRIPOS>ATOM
      1 N         140.5197  141.9083  167.0852 N.pl3   1  UNL1       -0.2784
      2 C         139.9116  140.5404  167.1790 C.3     1  UNL1        0.0950
      3 C         139.4814  139.8239  165.9333 C.3     1  UNL1        0.0375
      4 C         139.6595  140.4754  164.5940 C.3     1  UNL1        0.0610
      5 C         140.2676  141.8434  164.5002 C.3     1  UNL1        0.0375
      6 C         140.6978  142.5598  165.7459 C.3     1  UNL1        0.0950
      7 N         143.4287  143.6040  171.1527 N.pl3   1  UNL1       -0.3277
      8 C         142.2870  143.4043  170.2005 C.ar    1  UNL1        0.2131
      9 N         140.9367  144.0507  170.2950 N.ar    1  UNL1       -0.1121
     10 N         140.1103  143.5689  169.1395 N.ar    1  UNL1       -0.1117
     11 C         140.9499  142.6249  168.3309 C.ar    1  UNL1        0.2194
     12 N         142.2951  142.5231  168.9866 N.ar    1  UNL1       -0.2979
     13 H         143.3261  144.2062  171.9248 H       1  UNL1        0.1451
     14 H         144.2806  143.1330  171.0055 H       1  UNL1        0.1451
     15 H         143.0508  141.9743  168.6750 H       1  UNL1        0.1713
     16 N         139.2293  139.7589  163.3483 N.3     1  UNL1       -0.2705
     17 C         137.9850  140.1872  162.6285 C.3     1  UNL1        0.1046
     18 C         137.5548  139.4707  161.3828 C.3     1  UNL1        0.1595
     19 O         138.3690  138.3259  160.8570 O.3     1  UNL1       -0.3509
     20 C         139.6134  137.8976  161.5769 C.3     1  UNL1        0.1584
     21 C         140.0435  138.6141  162.8225 C.3     1  UNL1        0.0917
     22 C         141.2878  138.1858  163.5424 C.3     1  UNL1        0.0448
     23 C         142.5025  139.0657  163.5290 C.ar    1  UNL1       -0.0207
     24 C         143.4879  139.0012  164.6583 C.ar    1  UNL1       -0.0034
     25 C         144.7026  139.8812  164.6449 C.ar    1  UNL1        0.0111
     26 C         144.9319  140.8257  163.5022 C.ar    1  UNL1        0.0577
     27 CL        146.1466  141.7056  163.4889 Cl      1  UNL1       -0.0822
     28 C         143.9466  140.8901  162.3731 C.ar    1  UNL1        0.0111
     29 C         142.7319  140.0101  162.3865 C.ar    1  UNL1       -0.0034
@<TRIPOS>BOND
     1     7     8    1
     2     8     9   ar
     3     9    10   ar
     4    10    11   ar
     5    11     1    1
     6     1     2    1
     7     2     3    1
     8     3     4    1
     9     4    16    1
    10    16    17    1
    11    17    18    1
    12    18    19    1
    13    19    20    1
    14    20    21    1
    15    21    22    1
    16    22    23    1
    17    23    24   ar
    18    24    25   ar
    19    25    26   ar
    20    26    27    1
    21    26    28   ar
    22    28    29   ar
    23     4     5    1
    24     5     6    1
    25    11    12   ar
    26    12     8   ar
    27     6     1    1
    28    21    16    1
    29    29    23   ar
    30     7    13    1
    31     7    14    1
    32    12    15    1
@<TRIPOS>MOLECULE
*****
 29 32 0 0 0
SMALL
GASTEIGER

@<TRIPOS>ATOM
      1 N         141.0930  140.5288  167.0351 N.pl3   1  UNL1       -0.2784
      2 C         140.3327  140.7520  165.7615 C.3     1  UNL1        0.0950
      3 C         140.9690  140.4295  164.4420 C.3     1  UNL1        0.0375
      4 C         142.3655  139.8838  164.3961 C.3     1  UNL1        0.0610
      5 C         143.1257  139.6607  165.6697 C.3     1  UNL1        0.0375
      6 C         142.4895  139.9832  166.9892 C.3     1  UNL1        0.0950
      7 N         139.3055  143.1884  171.2319 N.pl3   1  UNL1       -0.3277
      8 C         139.6352  142.0737  170.2837 C.ar    1  UNL1        0.2131
      9 N         139.3204  140.6212  170.4869 N.ar    1  UNL1       -0.1121
     10 N         139.8282  139.8658  169.2947 N.ar    1  UNL1       -0.1117
     11 C         140.4568  140.8513  168.3547 C.ar    1  UNL1        0.2194
     12 N         140.3375  142.2159  168.9660 N.ar    1  UNL1       -0.2979
     13 H         138.8400  142.9940  172.0773 H       1  UNL1        0.1451
     14 H         139.5546  144.1143  171.0087 H       1  UNL1        0.1451
     15 H         140.6630  143.0571  168.5715 H       1  UNL1        0.1713
     16 N         143.0017  139.5614  163.0765 N.3     1  UNL1       -0.2705
     17 C         142.8267  138.1996  162.4724 C.3     1  UNL1        0.1046
     18 C         143.4630  137.8771  161.1528 C.3     1  UNL1        0.1595
     19 O         144.2741  138.9164  160.4373 O.3     1  UNL1       -0.3509
     20 C         144.4490  140.2783  161.0415 C.3     1  UNL1        0.1584
     21 C         143.8128  140.6007  162.3610 C.3     1  UNL1        0.0917
     22 C         143.9878  141.9625  162.9652 C.3     1  UNL1        0.0448
     23 C         142.9734  143.0357  162.7019 C.ar    1  UNL1       -0.0207
     24 C         142.4092  143.8305  163.8422 C.ar    1  UNL1       -0.0034
     25 C         141.3949  144.9037  163.5790 C.ar    1  UNL1        0.0111
     26 C         140.9447  145.1821  162.1754 C.ar    1  UNL1        0.0577
     27 CL        139.9303  146.2553  161.9122 Cl      1  UNL1       -0.0822
     28 C         141.5088  144.3873  161.0352 C.ar    1  UNL1        0.0111
     29 C         142.5232  143.3141  161.2985 C.ar    1  UNL1       -0.0034
@<TRIPOS>BOND
     1     7     8    1
     2     8     9   ar
     3     9    10   ar
     4    10    11   ar
     5    11     1    1
     6     1     2    1
     7     2     3    1
     8     3     4    1
     9     4    16    1
    10    16    17    1
    11    17    18    1
    12    18    19    1
    13    19    20    1
    14    20    21    1
    15    21    22    1
    16    22    23    1
    17    23    24   ar
    18    24    25   ar
    19    25    26   ar
    20    26    27    1
    21    26    28   ar
    22    28    29   ar
    23     4     5    1
    24     5     6    1
    25    11    12   ar
    26    12     8   ar
    27     6     1    1
    28    21    16    1
    29    29    23   ar
    30     7    13    1
    31     7    14    1
    32    12    15    1
@<TRIPOS>MOLECULE
*****
 29 32 0 0 0
SMALL
GASTEIGER

@<TRIPOS>ATOM
      1 N         140.7712  143.9098  163.8697 N.pl3   1  UNL1       -0.2784
      2 C         142.0236  143.1466  164.1841 C.3     1  UNL1        0.0950
      3 C         142.1833  142.4854  165.5210 C.3     1  UNL1        0.0375
      4 C         141.0905  142.5875  166.5435 C.3     1  UNL1        0.0610
      5 C         139.8381  143.3508  166.2290 C.3     1  UNL1        0.0375
      6 C         139.6785  144.0120  164.8922 C.3     1  UNL1        0.0950
      7 N         141.8013  145.8112  159.0525 N.pl3   1  UNL1       -0.3277
      8 C         141.0850  145.4450  160.3185 C.ar    1  UNL1        0.2131
      9 N         139.6465  145.7320  160.6323 N.ar    1  UNL1       -0.1121
     10 N         139.3539  145.1919  162.0007 N.ar    1  UNL1       -0.1117
     11 C         140.6115  144.5710  162.5327 C.ar    1  UNL1        0.2194
     12 N         141.6814  144.7275  161.4930 N.ar    1  UNL1       -0.2979
     13 H         141.3215  146.2843  158.3347 H       1  UNL1        0.1451
     14 H         142.7512  145.5785  158.9394 H       1  UNL1        0.1451
     15 H         142.6117  144.4142  161.5683 H       1  UNL1        0.1713
     16 N         141.2502  141.9263  167.8804 N.3     1  UNL1       -0.2705
     17 C         142.1898  142.5055  168.8961 C.3     1  UNL1        0.1046
     18 C         142.3495  141.8443  170.2331 C.3     1  UNL1        0.1595
     19 O         141.5696  140.6039  170.5542 O.3     1  UNL1       -0.3509
     20 C         140.6299  140.0247  169.5385 C.3     1  UNL1        0.1584
     21 C         140.4703  140.6859  168.2016 C.3     1  UNL1        0.0917
     22 C         139.5307  140.1068  167.1858 C.3     1  UNL1        0.0448
     23 C         140.0721  139.4739  165.9383 C.ar    1  UNL1       -0.0207
     24 C         141.4490  138.8786  165.9361 C.ar    1  UNL1       -0.0034
     25 C         141.9905  138.2457  164.6886 C.ar    1  UNL1        0.0111
     26 C         141.1550  138.2082  163.4432 C.ar    1  UNL1        0.0577
     27 CL        141.6965  137.5753  162.1957 Cl      1  UNL1       -0.0822
     28 C         139.7783  138.8035  163.4455 C.ar    1  UNL1        0.0111
     29 C         139.2368  139.4363  164.6930 C.ar    1  UNL1       -0.0034
@<TRIPOS>BOND
     1     7     8    1
     2     8     9   ar
     3     9    10   ar
     4    10    11   ar
     5    11     1    1
     6     1     2    1
     7     2     3    1
     8     3     4    1
     9     4    16    1
    10    16    17    1
    11    17    18    1
    12    18    19    1
    13    19    20    1
    14    20    21    1
    15    21    22    1
    16    22    23    1
    17    23    24   ar
    18    24    25   ar
    19    25    26   ar
    20    26    27    1
    21    26    28   ar
    22    28    29   ar
    23     4     5    1
    24     5     6    1
    25    11    12   ar
    26    12     8   ar
    27     6     1    1
    28    21    16    1
    29    29    23   ar
    30     7    13    1
    31     7    14    1
    32    12    15    1
@<TRIPOS>MOLECULE
*****
 29 32 0 0 0
SMALL
GASTEIGER

@<TRIPOS>ATOM
      1 N         139.9193  139.8685  166.9454 N.pl3   1  UNL1       -0.2784
      2 C         138.5317  139.6754  166.4094 C.3     1  UNL1        0.0950
      3 C         138.3055  139.5830  164.9295 C.3     1  UNL1        0.0375
      4 C         139.4669  139.6837  163.9855 C.3     1  UNL1        0.0610
      5 C         140.8545  139.8768  164.5215 C.3     1  UNL1        0.0375
      6 C         141.0807  139.9691  166.0015 C.3     1  UNL1        0.0950
      7 N         142.2519  140.5132  171.6384 N.pl3   1  UNL1       -0.3277
      8 C         141.2177  140.2572  170.5825 C.ar    1  UNL1        0.2131
      9 N         139.7695  139.9488  170.8232 N.ar    1  UNL1       -0.1121
     10 N         139.1070  139.7656  169.4900 N.ar    1  UNL1       -0.1117
     11 C         140.1455  139.9608  168.4254 C.ar    1  UNL1        0.2194
     12 N         141.4500  140.2646  169.1007 N.ar    1  UNL1       -0.2979
     13 H         142.0010  140.4863  172.5900 H       1  UNL1        0.1451
     14 H         143.1816  140.7082  171.3799 H       1  UNL1        0.1451
     15 H         142.3081  140.4384  168.6503 H       1  UNL1        0.1713
     16 N         139.2407  139.5913  162.5055 N.3     1  UNL1       -0.2705
     17 C         139.3629  138.2683  161.8093 C.3     1  UNL1        0.1046
     18 C         139.1366  138.1760  160.3293 C.3     1  UNL1        0.1595
     19 O         138.7882  139.4066  159.5456 O.3     1  UNL1       -0.3509
     20 C         138.6660  140.7296  160.2419 C.3     1  UNL1        0.1584
     21 C         138.8922  140.8219  161.7218 C.3     1  UNL1        0.0917
     22 C         138.7700  142.1449  162.4182 C.3     1  UNL1        0.0448
     23 C         140.0001  142.9445  162.7305 C.ar    1  UNL1       -0.0207
     24 C         139.9531  144.0130  163.7823 C.ar    1  UNL1       -0.0034
     25 C         141.1832  144.8126  164.0946 C.ar    1  UNL1        0.0111
     26 C         142.4603  144.5437  163.3551 C.ar    1  UNL1        0.0577
     27 CL        143.6904  145.3432  163.6674 Cl      1  UNL1       -0.0822
     28 C         142.5073  143.4752  162.3034 C.ar    1  UNL1        0.0111
     29 C         141.2772  142.6757  161.9911 C.ar    1  UNL1       -0.0034
@<TRIPOS>BOND
     1     7     8    1
     2     8     9   ar
     3     9    10   ar
     4    10    11   ar
     5    11     1    1
     6     1     2    1
     7     2     3    1
     8     3     4    1
     9     4    16    1
    10    16    17    1
    11    17    18    1
    12    18    19    1
    13    19    20    1
    14    20    21    1
    15    21    22    1
    16    22    23    1
    17    23    24   ar
    18    24    25   ar
    19    25    26   ar
    20    26    27    1
    21    26    28   ar
    22    28    29   ar
    23     4     5    1
    24     5     6    1
    25    11    12   ar
    26    12     8   ar
    27     6     1    1
    28    21    16    1
    29    29    23   ar
    30     7    13    1
    31     7    14    1
    32    12    15    1
@<TRIPOS>MOLECULE
*****
 29 32 0 0 0
SMALL
GASTEIGER

@<TRIPOS>ATOM
      1 N         141.2373  139.8333  167.0328 N.pl3   1  UNL1       -0.2784
      2 C         139.7925  139.9792  166.6567 C.3     1  UNL1        0.0950
      3 C         139.3726  139.8373  165.2237 C.3     1  UNL1        0.0375
      4 C         140.3974  139.5494  164.1669 C.3     1  UNL1        0.0610
      5 C         141.8421  139.4035  164.5430 C.3     1  UNL1        0.0375
      6 C         142.2620  139.5455  165.9759 C.3     1  UNL1        0.0950
      7 N         143.9910  139.4423  171.5212 N.pl3   1  UNL1       -0.3277
      8 C         142.9230  139.7955  170.5289 C.ar    1  UNL1        0.2131
      9 N         141.6840  140.5920  170.8131 N.ar    1  UNL1       -0.1121
     10 N         140.9018  140.7030  169.5381 N.ar    1  UNL1       -0.1117
     11 C         141.6573  139.9753  168.4658 C.ar    1  UNL1        0.2194
     12 N         142.9064  139.4144  169.0782 N.ar    1  UNL1       -0.2979
     13 H         143.9121  139.7400  172.4562 H       1  UNL1        0.1451
     14 H         144.7709  138.9127  171.2373 H       1  UNL1        0.1451
     15 H         143.5946  138.8885  168.6102 H       1  UNL1        0.1713
     16 N         139.9774  139.4075  162.7338 N.3     1  UNL1       -0.2705
     17 C         139.3195  138.1430  162.2668 C.3     1  UNL1        0.1046
     18 C         138.8994  138.0010  160.8338 C.3     1  UNL1        0.1595
     19 O         139.1374  139.1236  159.8678 O.3     1  UNL1       -0.3509
     20 C         139.7954  140.3882  160.3349 C.3     1  UNL1        0.1584
     21 C         140.2154  140.5301  161.7678 C.3     1  UNL1        0.0917
     22 C         140.8733  141.7946  162.2349 C.3     1  UNL1        0.0448
     23 C         140.1669  142.6930  163.2064 C.ar    1  UNL1       -0.0207
     24 C         138.7648  143.1464  162.9256 C.ar    1  UNL1       -0.0034
     25 C         138.0584  144.0448  163.8971 C.ar    1  UNL1        0.0111
     26 C         138.7540  144.4898  165.1494 C.ar    1  UNL1        0.0577
     27 CL        138.0476  145.3882  166.1209 Cl      1  UNL1       -0.0822
     28 C         140.1560  144.0365  165.4301 C.ar    1  UNL1        0.0111
     29 C         140.8625  143.1381  164.4586 C.ar    1  UNL1       -0.0034
@<TRIPOS>BOND
     1     7     8    1
     2     8     9   ar
     3     9    10   ar
     4    10    11   ar
     5    11     1    1
     6     1     2    1
     7     2     3    1
     8     3     4    1
     9     4    16    1
    10    16    17    1
    11    17    18    1
    12    18    19    1
    13    19    20    1
    14    20    21    1
    15    21    22    1
    16    22    23    1
    17    23    24   ar
    18    24    25   ar
    19    25    26   ar
    20    26    27    1
    21    26    28   ar
    22    28    29   ar
    23     4     5    1
    24     5     6    1
    25    11    12   ar
    26    12     8   ar
    27     6     1    1
    28    21    16    1
    29    29    23   ar
    30     7    13    1
    31     7    14    1
    32    12    15    1
@<TRIPOS>MOLECULE
*****
 29 32 0 0 0
SMALL
GASTEIGER

@<TRIPOS>ATOM
      1 N         140.9101  141.2997  167.4256 N.pl3   1  UNL1       -0.2784
      2 C         140.1963  142.0603  166.3477 C.3     1  UNL1        0.0950
      3 C         139.8626  141.3866  165.0497 C.3     1  UNL1        0.0375
      4 C         140.2428  139.9524  164.8297 C.3     1  UNL1        0.0610
      5 C         140.9566  139.1918  165.9076 C.3     1  UNL1        0.0375
      6 C         141.2902  139.8655  167.2056 C.3     1  UNL1        0.0950
      7 N         143.5094  143.9249  171.1983 N.pl3   1  UNL1       -0.3277
      8 C         142.4385  143.1801  170.4578 C.ar    1  UNL1        0.2131
      9 N         141.0758  142.8400  170.9845 N.ar    1  UNL1       -0.1121
     10 N         140.3374  142.0943  169.9128 N.ar    1  UNL1       -0.1117
     11 C         141.2438  141.9734  168.7237 C.ar    1  UNL1        0.2194
     12 N         142.5423  142.6445  169.0605 N.ar    1  UNL1       -0.2979
     13 H         143.3457  144.2381  172.1172 H       1  UNL1        0.1451
     14 H         144.3760  144.1007  170.7654 H       1  UNL1        0.1451
     15 H         143.3252  142.7201  168.4684 H       1  UNL1        0.1713
     16 N         139.9091  139.2787  163.5316 N.3     1  UNL1       -0.2705
     17 C         138.4964  138.8658  163.2423 C.3     1  UNL1        0.1046
     18 C         138.1627  138.1922  161.9443 C.3     1  UNL1        0.1595
     19 O         139.2418  137.9314  160.9355 O.3     1  UNL1       -0.3509
     20 C         140.6546  138.3443  161.2249 C.3     1  UNL1        0.1584
     21 C         140.9882  139.0179  162.5229 C.3     1  UNL1        0.0917
     22 C         142.4010  139.4308  162.8122 C.3     1  UNL1        0.0448
     23 C         142.7387  140.8827  162.9797 C.ar    1  UNL1       -0.0207
     24 C         143.6129  141.3231  164.1163 C.ar    1  UNL1       -0.0034
     25 C         143.9506  142.7750  164.2838 C.ar    1  UNL1        0.0111
     26 C         143.4140  143.7864  163.3146 C.ar    1  UNL1        0.0577
     27 CL        143.7517  145.2383  163.4821 Cl      1  UNL1       -0.0822
     28 C         142.5398  143.3460  162.1781 C.ar    1  UNL1        0.0111
     29 C         142.2022  141.8941  162.0106 C.ar    1  UNL1       -0.0034
@<TRIPOS>BOND
     1     7     8    1
     2     8     9   ar
     3     9    10   ar
     4    10    11   ar
     5    11     1    1
     6     1     2    1
     7     2     3    1
     8     3     4    1
     9     4    16    1
    10    16    17    1
    11    17    18    1
    12    18    19    1
    13    19    20    1
    14    20    21    1
    15    21    22    1
    16    22    23    1
    17    23    24   ar
    18    24    25   ar
    19    25    26   ar
    20    26    27    1
    21    26    28   ar
    22    28    29   ar
    23     4     5    1
    24     5     6    1
    25    11    12   ar
    26    12     8   ar
    27     6     1    1
    28    21    16    1
    29    29    23   ar
    30     7    13    1
    31     7    14    1
    32    12    15    1
