@<TRIPOS>MOLECULE
*****
 45 51 0 0 0
SMALL
GASTEIGER

@<TRIPOS>ATOM
      1 C         141.8780  138.2322  163.8042 C.3     1  UNL1        0.0932
      2 C         142.4904  138.7787  165.0597 C.3     1  UNL1        0.0286
      3 C         143.7583  139.5773  164.9897 C.3     1  UNL1        0.0193
      4 C         144.4137  139.8294  163.6642 C.3     1  UNL1        0.0700
      5 C         143.8012  139.2829  162.4087 C.3     1  UNL1        0.0193
      6 C         142.5334  138.4843  162.4787 C.3     1  UNL1        0.0286
      7 C         143.7199  139.3861  163.6524 C.3     1  UNL1        0.1562
      8 O         142.5735  138.6641  163.7158 O.3     1  UNL1       -0.3572
      9 N         145.6815  140.6280  163.5942 N.3     1  UNL1       -0.2926
     10 H         146.3883  140.0224  163.1769 H       1  UNL1        0.1236
     11 C         145.7132  141.9195  162.8321 C.3     1  UNL1        0.1152
     12 C         144.5364  142.8484  162.8812 C.ar    1  UNL1        0.0765
     13 C         144.1189  143.4618  164.1848 C.ar    1  UNL1        0.0193
     14 C         142.9421  144.3906  164.2338 C.ar    1  UNL1        0.0411
     15 C         142.1828  144.7061  162.9792 C.ar    1  UNL1        0.1708
     16 C         142.6003  144.0927  161.6756 C.ar    1  UNL1        0.1682
     17 N         143.7771  143.1639  161.6266 N.ar    1  UNL1       -0.2304
     18 N         141.8411  144.4082  160.4210 N.am    1  UNL1       -0.2639
     19 C         140.6643  145.3370  160.4700 C.2     1  UNL1        0.2718
     20 O         139.9051  145.6525  159.2155 O.2     1  UNL1       -0.2707
     21 C         140.2468  145.9505  161.7737 C.3     1  UNL1        0.2898
     22 O         141.0060  145.6350  163.0283 O.3     1  UNL1       -0.4628
     23 H         142.1151  144.0056  159.5654 H       1  UNL1        0.1565
     24 C         140.6101  137.4336  163.8742 C.3     1  UNL1        0.0320
     25 C         139.3359  138.0870  164.3208 C.3     1  UNL1        0.0327
     26 C         139.7878  142.3275  165.7576 C.ar    1  UNL1        0.2249
     27 C         139.2039  143.4558  164.9602 C.ar    1  UNL1        0.0593
     28 C         138.4695  143.1706  163.6838 C.ar    1  UNL1        0.0254
     29 C         138.3189  141.7571  163.2048 C.ar    1  UNL1        0.0990
     30 N         137.5844  141.4720  161.9284 N.ar    1  UNL1       -0.2400
     31 C         137.4338  140.0585  161.4494 C.ar    1  UNL1        0.1281
     32 C         138.0176  138.9302  162.2470 C.ar    1  UNL1        0.1566
     33 F         137.8670  137.5167  161.7680 F       1  UNL1       -0.2028
     34 C         138.7521  139.2153  163.5233 C.ar    1  UNL1        0.0261
     35 C         138.9027  140.6288  164.0023 C.ar    1  UNL1        0.1002
     36 N         139.6371  140.9140  165.2787 N.ar    1  UNL1       -0.2104
     37 O         140.5222  142.6126  167.0341 O.3     1  UNL1       -0.4602
     38 C         141.9953  142.3457  167.1275 C.3     1  UNL1        0.2075
     39 C         142.6490  140.7433  169.4518 C.3     1  UNL1        0.1028
     40 C         143.5292  141.9535  169.5545 C.3     1  UNL1        0.0155
     41 C         142.5815  141.8112  168.4006 C.3     1  UNL1        0.0549
     42 C         142.1798  139.4281  169.9994 C.2     1  UNL1        0.3167
     43 O         143.1598  138.3132  170.2156 O.2     1  UNL1       -0.2501
     44 C         139.7951  140.4000  170.3433 C.3     1  UNL1        0.2556
     45 O         140.7307  139.2276  170.3307 O.3     1  UNL1       -0.4444
@<TRIPOS>BOND
     1    44    45    1
     2    45    42    1
     3    42    43    2
     4    39    42    1
     5    39    40    1
     6    40    41    1
     7    41    38    1
     8    38    37    1
     9    37    26    1
    10    26    27   ar
    11    27    28   ar
    12    28    29   ar
    13    29    30   ar
    14    30    31   ar
    15    31    32   ar
    16    32    33    1
    17    32    34   ar
    18    34    25    1
    19    25    24    1
    20    24     1    1
    21     1     2    1
    22     2     3    1
    23     3     4    1
    24     4     9    1
    25     9    11    1
    26    11    12    1
    27    12    13   ar
    28    13    14   ar
    29    14    15   ar
    30    15    16   ar
    31    16    17   ar
    32    16    18    1
    33    18    19   am
    34    19    20    2
    35    19    21    1
    36    21    22    1
    37     4     5    1
    38     5     6    1
    39     4     7    1
    40     7     8    1
    41    34    35   ar
    42    35    36   ar
    43    41    39    1
    44    36    26   ar
    45    35    29   ar
    46     6     1    1
    47     8     1    1
    48    17    12   ar
    49    22    15    1
    50     9    10    1
    51    18    23    1
@<TRIPOS>MOLECULE
*****
 45 51 0 0 0
SMALL
GASTEIGER

@<TRIPOS>ATOM
      1 C         137.9231  142.7314  163.7575 C.3     1  UNL1        0.0932
      2 C         137.7475  142.5563  162.2782 C.3     1  UNL1        0.0286
      3 C         137.7262  141.1795  161.6832 C.3     1  UNL1        0.0193
      4 C         137.8805  139.9778  162.5676 C.3     1  UNL1        0.0700
      5 C         138.0561  140.1530  164.0470 C.3     1  UNL1        0.0193
      6 C         138.0774  141.5297  164.6419 C.3     1  UNL1        0.0286
      7 C         137.8986  140.7122  162.9395 C.3     1  UNL1        0.1562
      8 O         137.9178  141.9571  163.4774 O.3     1  UNL1       -0.3572
      9 N         137.8591  138.6010  161.9727 N.3     1  UNL1       -0.2926
     10 H         137.1160  138.5936  161.2740 H       1  UNL1        0.1236
     11 C         139.0859  138.0532  161.3057 C.3     1  UNL1        0.1152
     12 C         140.4411  138.3242  161.8889 C.ar    1  UNL1        0.0765
     13 C         141.5374  138.8644  161.0194 C.ar    1  UNL1        0.0193
     14 C         142.8925  139.1354  161.6027 C.ar    1  UNL1        0.0411
     15 C         143.1513  138.8661  163.0554 C.ar    1  UNL1        0.1708
     16 C         142.0549  138.3258  163.9249 C.ar    1  UNL1        0.1682
     17 N         140.6998  138.0548  163.3417 N.ar    1  UNL1       -0.2304
     18 N         142.3137  138.0565  165.3777 N.am    1  UNL1       -0.2639
     19 C         143.6688  138.3275  165.9609 C.2     1  UNL1        0.2718
     20 O         143.9276  138.0582  167.4137 O.2     1  UNL1       -0.2707
     21 C         144.7652  138.8678  165.0914 C.3     1  UNL1        0.2898
     22 O         144.5065  139.1371  163.6387 O.3     1  UNL1       -0.4628
     23 H         141.5941  137.7019  165.9484 H       1  UNL1        0.1565
     24 C         137.9445  144.1082  164.3525 C.3     1  UNL1        0.0320
     25 C         139.2459  144.8373  164.5096 C.3     1  UNL1        0.0327
     26 C         143.0000  142.4647  165.2363 C.ar    1  UNL1        0.2249
     27 C         144.0465  142.3703  164.1658 C.ar    1  UNL1        0.0593
     28 C         143.8417  143.0666  162.8532 C.ar    1  UNL1        0.0254
     29 C         142.5903  143.8575  162.6110 C.ar    1  UNL1        0.0990
     30 N         142.3855  144.5539  161.2983 N.ar    1  UNL1       -0.2400
     31 C         141.1342  145.3447  161.0561 C.ar    1  UNL1        0.1281
     32 C         140.0876  145.4392  162.1266 C.ar    1  UNL1        0.1566
     33 F         138.8363  146.2300  161.8843 F       1  UNL1       -0.2028
     34 C         140.2925  144.7428  163.4392 C.ar    1  UNL1        0.0261
     35 C         141.5438  143.9520  163.6814 C.ar    1  UNL1        0.1002
     36 N         141.7487  143.2556  164.9940 N.ar    1  UNL1       -0.2104
     37 O         143.2048  141.7683  166.5490 O.3     1  UNL1       -0.4602
     38 C         142.2428  141.9963  167.6770 C.3     1  UNL1        0.2075
     39 C         140.0720  140.4331  168.7913 C.3     1  UNL1        0.1028
     40 C         140.1330  140.0376  167.3457 C.3     1  UNL1        0.0155
     41 C         141.0958  141.0526  167.8868 C.3     1  UNL1        0.0549
     42 C         139.4457  140.3039  170.1481 C.2     1  UNL1        0.3167
     43 O         138.0149  139.8722  170.2756 O.2     1  UNL1       -0.2501
     44 C         141.0708  141.8600  171.4471 C.3     1  UNL1        0.2556
     45 O         140.2502  140.6063  171.3774 O.3     1  UNL1       -0.4444
@<TRIPOS>BOND
     1    44    45    1
     2    45    42    1
     3    42    43    2
     4    39    42    1
     5    39    40    1
     6    40    41    1
     7    41    38    1
     8    38    37    1
     9    37    26    1
    10    26    27   ar
    11    27    28   ar
    12    28    29   ar
    13    29    30   ar
    14    30    31   ar
    15    31    32   ar
    16    32    33    1
    17    32    34   ar
    18    34    25    1
    19    25    24    1
    20    24     1    1
    21     1     2    1
    22     2     3    1
    23     3     4    1
    24     4     9    1
    25     9    11    1
    26    11    12    1
    27    12    13   ar
    28    13    14   ar
    29    14    15   ar
    30    15    16   ar
    31    16    17   ar
    32    16    18    1
    33    18    19   am
    34    19    20    2
    35    19    21    1
    36    21    22    1
    37     4     5    1
    38     5     6    1
    39     4     7    1
    40     7     8    1
    41    34    35   ar
    42    35    36   ar
    43    41    39    1
    44    36    26   ar
    45    35    29   ar
    46     6     1    1
    47     8     1    1
    48    17    12   ar
    49    22    15    1
    50     9    10    1
    51    18    23    1
@<TRIPOS>MOLECULE
*****
 45 51 0 0 0
SMALL
GASTEIGER

@<TRIPOS>ATOM
      1 C         143.7845  142.1531  163.4129 C.3     1  UNL1        0.0932
      2 C         143.7158  142.8903  162.1084 C.3     1  UNL1        0.0286
      3 C         142.8872  144.1355  161.9933 C.3     1  UNL1        0.0193
      4 C         142.1274  144.6433  163.1828 C.3     1  UNL1        0.0700
      5 C         142.1961  143.9060  164.4873 C.3     1  UNL1        0.0193
      6 C         143.0246  142.6609  164.6024 C.3     1  UNL1        0.0286
      7 C         142.5679  143.9567  163.2943 C.3     1  UNL1        0.1562
      8 O         143.3171  142.8308  163.3983 O.3     1  UNL1       -0.3572
      9 N         141.2989  145.8884  163.0677 N.3     1  UNL1       -0.2926
     10 H         141.8513  146.5617  162.5368 H       1  UNL1        0.1236
     11 C         139.9465  145.8323  162.4213 C.3     1  UNL1        0.1152
     12 C         139.2606  144.5119  162.2306 C.ar    1  UNL1        0.0765
     13 C         138.4335  143.9296  163.3382 C.ar    1  UNL1        0.0193
     14 C         137.7476  142.6094  163.1476 C.ar    1  UNL1        0.0411
     15 C         137.8888  141.8714  161.8493 C.ar    1  UNL1        0.1708
     16 C         138.7158  142.4538  160.7417 C.ar    1  UNL1        0.1682
     17 N         139.4017  143.7740  160.9323 N.ar    1  UNL1       -0.2304
     18 N         138.8569  141.7158  159.4434 N.am    1  UNL1       -0.2639
     19 C         138.1710  140.3956  159.2527 C.2     1  UNL1        0.2718
     20 O         138.3121  139.6577  157.9544 O.2     1  UNL1       -0.2707
     21 C         137.3439  139.8132  160.3604 C.3     1  UNL1        0.2898
     22 O         137.2028  140.5511  161.6586 O.3     1  UNL1       -0.4628
     23 H         139.3997  142.0981  158.7164 H       1  UNL1        0.1565
     24 C         144.6130  140.9079  163.5280 C.3     1  UNL1        0.0320
     25 C         144.0064  139.6517  164.0793 C.3     1  UNL1        0.0327
     26 C         139.9135  139.9829  165.9202 C.ar    1  UNL1        0.2249
     27 C         138.7319  139.3589  165.2387 C.ar    1  UNL1        0.0593
     28 C         138.9146  138.6246  163.9436 C.ar    1  UNL1        0.0254
     29 C         140.2789  138.5142  163.3300 C.ar    1  UNL1        0.0990
     30 N         140.4615  137.7798  162.0348 N.ar    1  UNL1       -0.2400
     31 C         141.8258  137.6694  161.4212 C.ar    1  UNL1        0.1281
     32 C         143.0074  138.2934  162.1027 C.ar    1  UNL1        0.1566
     33 F         144.3717  138.1830  161.4891 F       1  UNL1       -0.2028
     34 C         142.8247  139.0278  163.3978 C.ar    1  UNL1        0.0261
     35 C         141.4605  139.1382  164.0114 C.ar    1  UNL1        0.1002
     36 N         141.2778  139.8725  165.3065 N.ar    1  UNL1       -0.2104
     37 O         139.7309  140.7173  167.2153 O.3     1  UNL1       -0.4602
     38 C         140.1203  142.1620  167.3197 C.3     1  UNL1        0.2075
     39 C         142.0509  142.5891  169.4382 C.3     1  UNL1        0.1028
     40 C         140.9506  143.5711  169.7119 C.3     1  UNL1        0.0155
     41 C         140.8601  142.6540  168.5284 C.3     1  UNL1        0.0549
     42 C         143.3736  141.9846  169.8055 C.2     1  UNL1        0.3167
     43 O         144.5980  142.8479  169.8794 O.2     1  UNL1       -0.2501
     44 C         142.2702  139.6357  169.9278 C.3     1  UNL1        0.2556
     45 O         143.4719  140.5168  170.0988 O.3     1  UNL1       -0.4444
@<TRIPOS>BOND
     1    44    45    1
     2    45    42    1
     3    42    43    2
     4    39    42    1
     5    39    40    1
     6    40    41    1
     7    41    38    1
     8    38    37    1
     9    37    26    1
    10    26    27   ar
    11    27    28   ar
    12    28    29   ar
    13    29    30   ar
    14    30    31   ar
    15    31    32   ar
    16    32    33    1
    17    32    34   ar
    18    34    25    1
    19    25    24    1
    20    24     1    1
    21     1     2    1
    22     2     3    1
    23     3     4    1
    24     4     9    1
    25     9    11    1
    26    11    12    1
    27    12    13   ar
    28    13    14   ar
    29    14    15   ar
    30    15    16   ar
    31    16    17   ar
    32    16    18    1
    33    18    19   am
    34    19    20    2
    35    19    21    1
    36    21    22    1
    37     4     5    1
    38     5     6    1
    39     4     7    1
    40     7     8    1
    41    34    35   ar
    42    35    36   ar
    43    41    39    1
    44    36    26   ar
    45    35    29   ar
    46     6     1    1
    47     8     1    1
    48    17    12   ar
    49    22    15    1
    50     9    10    1
    51    18    23    1
@<TRIPOS>MOLECULE
*****
 45 51 0 0 0
SMALL
GASTEIGER

@<TRIPOS>ATOM
      1 C         138.5328  139.9385  164.5640 C.3     1  UNL1        0.0932
      2 C         137.6910  140.3421  163.3900 C.3     1  UNL1        0.0286
      3 C         137.4592  141.7950  163.0974 C.3     1  UNL1        0.0193
      4 C         138.0693  142.8441  163.9788 C.3     1  UNL1        0.0700
      5 C         138.9112  142.4405  165.1529 C.3     1  UNL1        0.0193
      6 C         139.1429  140.9877  165.4455 C.3     1  UNL1        0.0286
      7 C         138.2245  142.0607  164.1791 C.3     1  UNL1        0.1562
      8 O         138.4340  140.7470  164.4436 O.3     1  UNL1       -0.3572
      9 N         137.8376  144.2969  163.6863 N.3     1  UNL1       -0.2926
     10 H         137.9024  144.7906  164.5765 H       1  UNL1        0.1236
     11 C         138.7325  145.0202  162.7240 C.3     1  UNL1        0.1152
     12 C         140.1675  144.6078  162.5794 C.ar    1  UNL1        0.0765
     13 C         141.1837  145.0635  163.5843 C.ar    1  UNL1        0.0193
     14 C         142.6186  144.6511  163.4397 C.ar    1  UNL1        0.0411
     15 C         143.0374  143.7831  162.2903 C.ar    1  UNL1        0.1708
     16 C         142.0212  143.3275  161.2854 C.ar    1  UNL1        0.1682
     17 N         140.5863  143.7399  161.4300 N.ar    1  UNL1       -0.2304
     18 N         142.4400  142.4595  160.1360 N.am    1  UNL1       -0.2639
     19 C         143.8749  142.0472  159.9914 C.2     1  UNL1        0.2718
     20 O         144.2937  141.1792  158.8419 O.2     1  UNL1       -0.2707
     21 C         144.8911  142.5028  160.9963 C.3     1  UNL1        0.2898
     22 O         144.4724  143.3708  162.1458 O.3     1  UNL1       -0.4628
     23 H         141.7731  142.1605  159.4764 H       1  UNL1        0.1565
     24 C         138.7645  138.4856  164.8566 C.3     1  UNL1        0.0320
     25 C         139.3517  137.5929  163.8039 C.3     1  UNL1        0.0327
     26 C         143.4050  138.6167  165.4688 C.ar    1  UNL1        0.2249
     27 C         144.4800  139.1351  164.5601 C.ar    1  UNL1        0.0593
     28 C         144.2038  139.3122  163.0965 C.ar    1  UNL1        0.0254
     29 C         142.8527  138.9709  162.5415 C.ar    1  UNL1        0.0990
     30 N         142.5765  139.1480  161.0778 N.ar    1  UNL1       -0.2400
     31 C         141.2254  138.8068  160.5228 C.ar    1  UNL1        0.1281
     32 C         140.1504  138.2884  161.4316 C.ar    1  UNL1        0.1566
     33 F         138.7993  137.9471  160.8766 F       1  UNL1       -0.2028
     34 C         140.4266  138.1113  162.8952 C.ar    1  UNL1        0.0261
     35 C         141.7777  138.4525  163.4502 C.ar    1  UNL1        0.1002
     36 N         142.0539  138.2754  164.9138 N.ar    1  UNL1       -0.2104
     37 O         143.6812  138.4396  166.9325 O.3     1  UNL1       -0.4602
     38 C         142.8003  139.1052  167.9479 C.3     1  UNL1        0.2075
     39 C         142.7056  141.9398  168.5424 C.3     1  UNL1        0.1028
     40 C         142.1068  141.8101  167.1733 C.3     1  UNL1        0.0155
     41 C         142.5891  140.5895  167.8996 C.3     1  UNL1        0.0549
     42 C         143.1186  142.7942  169.7040 C.2     1  UNL1        0.3167
     43 O         144.5712  142.9410  170.0480 O.2     1  UNL1       -0.2501
     44 C         140.7420  143.8209  169.9213 C.3     1  UNL1        0.2556
     45 O         142.0791  143.5019  170.5216 O.3     1  UNL1       -0.4444
@<TRIPOS>BOND
     1    44    45    1
     2    45    42    1
     3    42    43    2
     4    39    42    1
     5    39    40    1
     6    40    41    1
     7    41    38    1
     8    38    37    1
     9    37    26    1
    10    26    27   ar
    11    27    28   ar
    12    28    29   ar
    13    29    30   ar
    14    30    31   ar
    15    31    32   ar
    16    32    33    1
    17    32    34   ar
    18    34    25    1
    19    25    24    1
    20    24     1    1
    21     1     2    1
    22     2     3    1
    23     3     4    1
    24     4     9    1
    25     9    11    1
    26    11    12    1
    27    12    13   ar
    28    13    14   ar
    29    14    15   ar
    30    15    16   ar
    31    16    17   ar
    32    16    18    1
    33    18    19   am
    34    19    20    2
    35    19    21    1
    36    21    22    1
    37     4     5    1
    38     5     6    1
    39     4     7    1
    40     7     8    1
    41    34    35   ar
    42    35    36   ar
    43    41    39    1
    44    36    26   ar
    45    35    29   ar
    46     6     1    1
    47     8     1    1
    48    17    12   ar
    49    22    15    1
    50     9    10    1
    51    18    23    1
@<TRIPOS>MOLECULE
*****
 45 51 0 0 0
SMALL
GASTEIGER

@<TRIPOS>ATOM
      1 C         138.5612  140.3073  165.4970 C.3     1  UNL1        0.0932
      2 C         137.9128  140.9962  164.3329 C.3     1  UNL1        0.0286
      3 C         138.2525  142.4238  164.0221 C.3     1  UNL1        0.0193
      4 C         139.2405  143.1625  164.8753 C.3     1  UNL1        0.0700
      5 C         139.8889  142.4736  166.0394 C.3     1  UNL1        0.0193
      6 C         139.5492  141.0461  166.3502 C.3     1  UNL1        0.0286
      7 C         139.0862  142.3813  165.0848 C.3     1  UNL1        0.1562
      8 O         138.7791  141.0905  165.3658 O.3     1  UNL1       -0.3572
      9 N         139.5802  144.5901  164.5646 N.3     1  UNL1       -0.2926
     10 H         139.5322  145.1026  165.4451 H       1  UNL1        0.1236
     11 C         140.9008  144.9276  163.9386 C.3     1  UNL1        0.1152
     12 C         141.0626  144.8646  162.4486 C.ar    1  UNL1        0.0765
     13 C         140.0959  145.5873  161.5580 C.ar    1  UNL1        0.0193
     14 C         140.2576  145.5243  160.0681 C.ar    1  UNL1        0.0411
     15 C         141.3861  144.7385  159.4688 C.ar    1  UNL1        0.1708
     16 C         142.3527  144.0157  160.3594 C.ar    1  UNL1        0.1682
     17 N         142.1910  144.0787  161.8492 N.ar    1  UNL1       -0.2304
     18 N         143.4811  143.2299  159.7600 N.am    1  UNL1       -0.2639
     19 C         143.6429  143.1668  158.2701 C.2     1  UNL1        0.2718
     20 O         144.7713  142.3810  157.6708 O.2     1  UNL1       -0.2707
     21 C         142.6762  143.8896  157.3795 C.3     1  UNL1        0.2898
     22 O         141.5478  144.6754  157.9788 O.3     1  UNL1       -0.4628
     23 H         144.1156  142.7555  160.3446 H       1  UNL1        0.1565
     24 C         138.2215  138.8797  165.8078 C.3     1  UNL1        0.0320
     25 C         138.8642  137.7695  165.0303 C.3     1  UNL1        0.0327
     26 C         143.0958  138.7738  166.1856 C.ar    1  UNL1        0.2249
     27 C         144.1081  139.0894  165.1247 C.ar    1  UNL1        0.0593
     28 C         143.7099  139.0703  163.6786 C.ar    1  UNL1        0.0254
     29 C         142.2993  138.7355  163.2936 C.ar    1  UNL1        0.0990
     30 N         141.9011  138.7164  161.8475 N.ar    1  UNL1       -0.2400
     31 C         140.4905  138.3816  161.4624 C.ar    1  UNL1        0.1281
     32 C         139.4782  138.0660  162.5234 C.ar    1  UNL1        0.1566
     33 F         138.0677  137.7312  162.1383 F       1  UNL1       -0.2028
     34 C         139.8765  138.0851  163.9694 C.ar    1  UNL1        0.0261
     35 C         141.2870  138.4199  164.3545 C.ar    1  UNL1        0.1002
     36 N         141.6853  138.4390  165.8005 N.ar    1  UNL1       -0.2104
     37 O         143.4941  138.7929  167.6317 O.3     1  UNL1       -0.4602
     38 C         142.5646  139.3696  168.6580 C.3     1  UNL1        0.2075
     39 C         141.6761  142.0679  169.2305 C.3     1  UNL1        0.1028
     40 C         143.0773  142.2211  168.7175 C.3     1  UNL1        0.0155
     41 C         142.4639  140.8567  168.8273 C.3     1  UNL1        0.0549
     42 C         140.4124  142.6786  169.7594 C.2     1  UNL1        0.3167
     43 O         140.1339  144.1358  169.5382 O.2     1  UNL1       -0.2501
     44 C         139.0601  140.4726  169.9931 C.3     1  UNL1        0.2556
     45 O         139.4271  141.8322  170.5096 O.3     1  UNL1       -0.4444
@<TRIPOS>BOND
     1    44    45    1
     2    45    42    1
     3    42    43    2
     4    39    42    1
     5    39    40    1
     6    40    41    1
     7    41    38    1
     8    38    37    1
     9    37    26    1
    10    26    27   ar
    11    27    28   ar
    12    28    29   ar
    13    29    30   ar
    14    30    31   ar
    15    31    32   ar
    16    32    33    1
    17    32    34   ar
    18    34    25    1
    19    25    24    1
    20    24     1    1
    21     1     2    1
    22     2     3    1
    23     3     4    1
    24     4     9    1
    25     9    11    1
    26    11    12    1
    27    12    13   ar
    28    13    14   ar
    29    14    15   ar
    30    15    16   ar
    31    16    17   ar
    32    16    18    1
    33    18    19   am
    34    19    20    2
    35    19    21    1
    36    21    22    1
    37     4     5    1
    38     5     6    1
    39     4     7    1
    40     7     8    1
    41    34    35   ar
    42    35    36   ar
    43    41    39    1
    44    36    26   ar
    45    35    29   ar
    46     6     1    1
    47     8     1    1
    48    17    12   ar
    49    22    15    1
    50     9    10    1
    51    18    23    1
@<TRIPOS>MOLECULE
*****
 45 51 0 0 0
SMALL
GASTEIGER

@<TRIPOS>ATOM
      1 C         141.4118  142.5595  166.5417 C.3     1  UNL1        0.0932
      2 C         141.8959  142.8028  165.1430 C.3     1  UNL1        0.0286
      3 C         141.0810  143.6402  164.2023 C.3     1  UNL1        0.0193
      4 C         139.7821  144.2342  164.6604 C.3     1  UNL1        0.0700
      5 C         139.2980  143.9909  166.0591 C.3     1  UNL1        0.0193
      6 C         140.1129  143.1535  166.9997 C.3     1  UNL1        0.0286
      7 C         140.1939  143.7823  165.2118 C.3     1  UNL1        0.1562
      8 O         140.9307  143.0251  166.0623 O.3     1  UNL1       -0.3572
      9 N         138.9672  145.0716  163.7197 N.3     1  UNL1       -0.2926
     10 H         139.6102  145.4342  163.0159 H       1  UNL1        0.1236
     11 C         137.8142  144.4613  162.9794 C.3     1  UNL1        0.1152
     12 C         137.9876  143.1512  162.2696 C.ar    1  UNL1        0.0765
     13 C         137.4969  141.8838  162.9041 C.ar    1  UNL1        0.0193
     14 C         137.6703  140.5738  162.1944 C.ar    1  UNL1        0.0411
     15 C         138.3345  140.5312  160.8501 C.ar    1  UNL1        0.1708
     16 C         138.8253  141.7987  160.2156 C.ar    1  UNL1        0.1682
     17 N         138.6519  143.1087  160.9254 N.ar    1  UNL1       -0.2304
     18 N         139.4896  141.7562  158.8714 N.am    1  UNL1       -0.2639
     19 C         139.6630  140.4462  158.1616 C.2     1  UNL1        0.2718
     20 O         140.3272  140.4037  156.8174 O.2     1  UNL1       -0.2707
     21 C         139.1722  139.1786  158.7961 C.3     1  UNL1        0.2898
     22 O         138.5080  139.2212  160.1404 O.3     1  UNL1       -0.4628
     23 H         139.8117  142.5881  158.4550 H       1  UNL1        0.1565
     24 C         142.2267  141.7221  167.4824 C.3     1  UNL1        0.0320
     25 C         141.9858  140.2443  167.5714 C.3     1  UNL1        0.0327
     26 C         142.4894  138.4385  163.4805 C.ar    1  UNL1        0.2249
     27 C         141.3121  137.8270  162.7805 C.ar    1  UNL1        0.0593
     28 C         139.9670  137.8174  163.4442 C.ar    1  UNL1        0.0254
     29 C         139.7991  138.4193  164.8078 C.ar    1  UNL1        0.0990
     30 N         138.4539  138.4097  165.4715 N.ar    1  UNL1       -0.2400
     31 C         138.2861  139.0116  166.8351 C.ar    1  UNL1        0.1281
     32 C         139.4634  139.6232  167.5351 C.ar    1  UNL1        0.1566
     33 F         139.2956  140.2251  168.8987 F       1  UNL1       -0.2028
     34 C         140.8086  139.6328  166.8714 C.ar    1  UNL1        0.0261
     35 C         140.9764  139.0308  165.5078 C.ar    1  UNL1        0.1002
     36 N         142.3215  139.0405  164.8441 N.ar    1  UNL1       -0.2104
     37 O         143.8346  138.4482  162.8168 O.3     1  UNL1       -0.4602
     38 C         144.1975  139.5563  161.8733 C.3     1  UNL1        0.2075
     39 C         144.6357  142.3681  162.4200 C.3     1  UNL1        0.1028
     40 C         145.5815  141.6435  163.3312 C.3     1  UNL1        0.0155
     41 C         144.6858  140.8690  162.4104 C.3     1  UNL1        0.0549
     42 C         144.0608  143.6520  161.8994 C.2     1  UNL1        0.3167
     43 O         144.2005  144.9144  162.6974 O.2     1  UNL1       -0.2501
     44 C         141.9565  144.2306  160.4898 C.3     1  UNL1        0.2556
     45 O         143.3462  143.6736  160.5807 O.3     1  UNL1       -0.4444
@<TRIPOS>BOND
     1    44    45    1
     2    45    42    1
     3    42    43    2
     4    39    42    1
     5    39    40    1
     6    40    41    1
     7    41    38    1
     8    38    37    1
     9    37    26    1
    10    26    27   ar
    11    27    28   ar
    12    28    29   ar
    13    29    30   ar
    14    30    31   ar
    15    31    32   ar
    16    32    33    1
    17    32    34   ar
    18    34    25    1
    19    25    24    1
    20    24     1    1
    21     1     2    1
    22     2     3    1
    23     3     4    1
    24     4     9    1
    25     9    11    1
    26    11    12    1
    27    12    13   ar
    28    13    14   ar
    29    14    15   ar
    30    15    16   ar
    31    16    17   ar
    32    16    18    1
    33    18    19   am
    34    19    20    2
    35    19    21    1
    36    21    22    1
    37     4     5    1
    38     5     6    1
    39     4     7    1
    40     7     8    1
    41    34    35   ar
    42    35    36   ar
    43    41    39    1
    44    36    26   ar
    45    35    29   ar
    46     6     1    1
    47     8     1    1
    48    17    12   ar
    49    22    15    1
    50     9    10    1
    51    18    23    1
@<TRIPOS>MOLECULE
*****
 45 51 0 0 0
SMALL
GASTEIGER

@<TRIPOS>ATOM
      1 C         143.4292  143.6271  164.5008 C.3     1  UNL1        0.0932
      2 C         143.2100  144.7180  163.4950 C.3     1  UNL1        0.0286
      3 C         141.8314  145.2648  163.2700 C.3     1  UNL1        0.0193
      4 C         140.6721  144.7206  164.0509 C.3     1  UNL1        0.0700
      5 C         140.8914  143.6296  165.0568 C.3     1  UNL1        0.0193
      6 C         142.2699  143.0829  165.2817 C.3     1  UNL1        0.0286
      7 C         141.4091  144.3893  164.2089 C.3     1  UNL1        0.1562
      8 O         142.6557  143.8949  164.4123 O.3     1  UNL1       -0.3572
      9 N         139.2935  145.2673  163.8260 N.3     1  UNL1       -0.2926
     10 H         139.4044  146.2468  163.5638 H       1  UNL1        0.1236
     11 C         138.3975  144.6426  162.7981 C.3     1  UNL1        0.1152
     12 C         138.3734  143.1521  162.6304 C.ar    1  UNL1        0.0765
     13 C         137.6675  142.2953  163.6391 C.ar    1  UNL1        0.0193
     14 C         137.6435  140.8049  163.4714 C.ar    1  UNL1        0.0411
     15 C         138.3253  140.1714  162.2951 C.ar    1  UNL1        0.1708
     16 C         139.0313  141.0283  161.2864 C.ar    1  UNL1        0.1682
     17 N         139.0553  142.5186  161.4541 N.ar    1  UNL1       -0.2304
     18 N         139.7132  140.3948  160.1101 N.am    1  UNL1       -0.2639
     19 C         139.6891  138.9044  159.9424 C.2     1  UNL1        0.2718
     20 O         140.3710  138.2709  158.7661 O.2     1  UNL1       -0.2707
     21 C         138.9832  138.0474  160.9511 C.3     1  UNL1        0.2898
     22 O         138.3013  138.6809  162.1274 O.3     1  UNL1       -0.4628
     23 H         140.1765  140.9572  159.4481 H       1  UNL1        0.1565
     24 C         144.8078  143.0803  164.7258 C.3     1  UNL1        0.0320
     25 C         145.3768  142.0672  163.7772 C.3     1  UNL1        0.0327
     26 C         142.8666  138.9537  165.8400 C.ar    1  UNL1        0.2249
     27 C         141.9492  138.0784  165.0386 C.ar    1  UNL1        0.0593
     28 C         141.8686  138.2409  163.5496 C.ar    1  UNL1        0.0254
     29 C         142.7054  139.2787  162.8621 C.ar    1  UNL1        0.0990
     30 N         142.6247  139.4412  161.3730 N.ar    1  UNL1       -0.2400
     31 C         143.4615  140.4791  160.6854 C.ar    1  UNL1        0.1281
     32 C         144.3789  141.3544  161.4869 C.ar    1  UNL1        0.1566
     33 F         145.2156  142.3922  160.7993 F       1  UNL1       -0.2028
     34 C         144.4595  141.1919  162.9759 C.ar    1  UNL1        0.0261
     35 C         143.6227  140.1540  163.6634 C.ar    1  UNL1        0.1002
     36 N         143.7033  139.9915  165.1524 N.ar    1  UNL1       -0.2104
     37 O         142.9473  138.7912  167.3290 O.3     1  UNL1       -0.4602
     38 C         142.0019  139.5436  168.2179 C.3     1  UNL1        0.2075
     39 C         142.6789  141.4794  170.2653 C.3     1  UNL1        0.1028
     40 C         143.2439  140.1800  170.7575 C.3     1  UNL1        0.0155
     41 C         142.5161  140.2328  169.4470 C.3     1  UNL1        0.0549
     42 C         142.4467  142.9493  170.4535 C.2     1  UNL1        0.3167
     43 O         143.5509  143.8228  170.9709 O.2     1  UNL1       -0.2501
     44 C         140.4149  143.1702  168.8495 C.3     1  UNL1        0.2556
     45 O         141.1103  143.5456  170.1244 O.3     1  UNL1       -0.4444
@<TRIPOS>BOND
     1    44    45    1
     2    45    42    1
     3    42    43    2
     4    39    42    1
     5    39    40    1
     6    40    41    1
     7    41    38    1
     8    38    37    1
     9    37    26    1
    10    26    27   ar
    11    27    28   ar
    12    28    29   ar
    13    29    30   ar
    14    30    31   ar
    15    31    32   ar
    16    32    33    1
    17    32    34   ar
    18    34    25    1
    19    25    24    1
    20    24     1    1
    21     1     2    1
    22     2     3    1
    23     3     4    1
    24     4     9    1
    25     9    11    1
    26    11    12    1
    27    12    13   ar
    28    13    14   ar
    29    14    15   ar
    30    15    16   ar
    31    16    17   ar
    32    16    18    1
    33    18    19   am
    34    19    20    2
    35    19    21    1
    36    21    22    1
    37     4     5    1
    38     5     6    1
    39     4     7    1
    40     7     8    1
    41    34    35   ar
    42    35    36   ar
    43    41    39    1
    44    36    26   ar
    45    35    29   ar
    46     6     1    1
    47     8     1    1
    48    17    12   ar
    49    22    15    1
    50     9    10    1
    51    18    23    1
@<TRIPOS>MOLECULE
*****
 45 51 0 0 0
SMALL
GASTEIGER

@<TRIPOS>ATOM
      1 C         138.5521  139.3703  163.9783 C.3     1  UNL1        0.0932
      2 C         139.0443  140.0725  165.2089 C.3     1  UNL1        0.0286
      3 C         138.7949  141.5412  165.3847 C.3     1  UNL1        0.0193
      4 C         138.0534  142.3076  164.3299 C.3     1  UNL1        0.0700
      5 C         137.5612  141.6053  163.0991 C.3     1  UNL1        0.0193
      6 C         137.8105  140.1367  162.9234 C.3     1  UNL1        0.0286
      7 C         138.1660  141.5042  164.1891 C.3     1  UNL1        0.1562
      8 O         138.3915  140.1762  164.0302 O.3     1  UNL1       -0.3572
      9 N         137.8040  143.7762  164.5056 N.3     1  UNL1       -0.2926
     10 H         137.4507  143.9035  165.4540 H       1  UNL1        0.1236
     11 C         138.9272  144.7543  164.3271 C.3     1  UNL1        0.1152
     12 C         139.8181  144.6618  163.1238 C.ar    1  UNL1        0.0765
     13 C         141.1488  143.9773  163.2267 C.ar    1  UNL1        0.0193
     14 C         142.0396  143.8849  162.0235 C.ar    1  UNL1        0.0411
     15 C         141.5997  144.4769  160.7174 C.ar    1  UNL1        0.1708
     16 C         140.2690  145.1614  160.6145 C.ar    1  UNL1        0.1682
     17 N         139.3782  145.2539  161.8177 N.ar    1  UNL1       -0.2304
     18 N         139.8292  145.7535  159.3083 N.am    1  UNL1       -0.2639
     19 C         140.7200  145.6611  158.1051 C.2     1  UNL1        0.2718
     20 O         140.2801  146.2532  156.7990 O.2     1  UNL1       -0.2707
     21 C         142.0508  144.9766  158.2080 C.3     1  UNL1        0.2898
     22 O         142.4907  144.3845  159.5141 O.3     1  UNL1       -0.4628
     23 H         138.9558  146.2028  159.2408 H       1  UNL1        0.1565
     24 C         138.8014  137.9016  163.8024 C.3     1  UNL1        0.0320
     25 C         140.0876  137.4268  163.1939 C.3     1  UNL1        0.0327
     26 C         143.5000  139.4053  165.3599 C.ar    1  UNL1        0.2249
     27 C         144.3886  140.3721  164.6350 C.ar    1  UNL1        0.0593
     28 C         144.1398  140.6795  163.1881 C.ar    1  UNL1        0.0254
     29 C         143.0023  140.0200  162.4661 C.ar    1  UNL1        0.0990
     30 N         142.7535  140.3274  161.0192 N.ar    1  UNL1       -0.2400
     31 C         141.6160  139.6679  160.2972 C.ar    1  UNL1        0.1281
     32 C         140.7274  138.7010  161.0222 C.ar    1  UNL1        0.1566
     33 F         139.5900  138.0416  160.3002 F       1  UNL1       -0.2028
     34 C         140.9763  138.3937  162.4690 C.ar    1  UNL1        0.0261
     35 C         142.1137  139.0532  163.1910 C.ar    1  UNL1        0.1002
     36 N         142.3626  138.7458  164.6379 N.ar    1  UNL1       -0.2104
     37 O         143.7488  139.0979  166.8069 O.3     1  UNL1       -0.4602
     38 C         142.6166  139.1467  167.7895 C.3     1  UNL1        0.2075
     39 C         141.9036  140.8673  170.0096 C.3     1  UNL1        0.1028
     40 C         143.2215  141.3905  169.5206 C.3     1  UNL1        0.0155
     41 C         142.5876  140.2090  168.8483 C.3     1  UNL1        0.0549
     42 C         140.7478  140.9452  170.9624 C.2     1  UNL1        0.3167
     43 O         140.6845  142.0491  171.9760 O.2     1  UNL1       -0.2501
     44 C         138.4993  140.1091  169.9648 C.3     1  UNL1        0.2556
     45 O         139.6552  139.9192  170.9017 O.3     1  UNL1       -0.4444
@<TRIPOS>BOND
     1    44    45    1
     2    45    42    1
     3    42    43    2
     4    39    42    1
     5    39    40    1
     6    40    41    1
     7    41    38    1
     8    38    37    1
     9    37    26    1
    10    26    27   ar
    11    27    28   ar
    12    28    29   ar
    13    29    30   ar
    14    30    31   ar
    15    31    32   ar
    16    32    33    1
    17    32    34   ar
    18    34    25    1
    19    25    24    1
    20    24     1    1
    21     1     2    1
    22     2     3    1
    23     3     4    1
    24     4     9    1
    25     9    11    1
    26    11    12    1
    27    12    13   ar
    28    13    14   ar
    29    14    15   ar
    30    15    16   ar
    31    16    17   ar
    32    16    18    1
    33    18    19   am
    34    19    20    2
    35    19    21    1
    36    21    22    1
    37     4     5    1
    38     5     6    1
    39     4     7    1
    40     7     8    1
    41    34    35   ar
    42    35    36   ar
    43    41    39    1
    44    36    26   ar
    45    35    29   ar
    46     6     1    1
    47     8     1    1
    48    17    12   ar
    49    22    15    1
    50     9    10    1
    51    18    23    1
@<TRIPOS>MOLECULE
*****
 45 51 0 0 0
SMALL
GASTEIGER

@<TRIPOS>ATOM
      1 C         138.3085  140.2932  164.4029 C.3     1  UNL1        0.0932
      2 C         138.7553  141.4944  165.1824 C.3     1  UNL1        0.0286
      3 C         138.5633  142.8700  164.6159 C.3     1  UNL1        0.0193
      4 C         137.9245  143.0445  163.2699 C.3     1  UNL1        0.0700
      5 C         137.4777  141.8432  162.4905 C.3     1  UNL1        0.0193
      6 C         137.6697  140.4677  163.0570 C.3     1  UNL1        0.0286
      7 C         138.0086  142.2708  163.5390 C.3     1  UNL1        0.1562
      8 O         138.1822  141.0270  164.0513 O.3     1  UNL1       -0.3572
      9 N         137.7326  144.4200  162.7035 N.3     1  UNL1       -0.2926
     10 H         137.1448  144.9305  163.3625 H       1  UNL1        0.1236
     11 C         138.9230  145.2882  162.4225 C.3     1  UNL1        0.1152
     12 C         140.1237  144.7139  161.7306 C.ar    1  UNL1        0.0765
     13 C         140.1893  144.6973  160.2322 C.ar    1  UNL1        0.0193
     14 C         141.3898  144.1229  159.5403 C.ar    1  UNL1        0.0411
     15 C         142.5248  143.5652  160.3470 C.ar    1  UNL1        0.1708
     16 C         142.4593  143.5817  161.8454 C.ar    1  UNL1        0.1682
     17 N         141.2587  144.1561  162.5372 N.ar    1  UNL1       -0.2304
     18 N         143.5943  143.0239  162.6520 N.am    1  UNL1       -0.2639
     19 C         144.7949  142.4496  161.9602 C.2     1  UNL1        0.2718
     20 O         145.9299  141.8918  162.7668 O.2     1  UNL1       -0.2707
     21 C         144.8605  142.4330  160.4617 C.3     1  UNL1        0.2898
     22 O         143.7255  142.9908  159.6551 O.3     1  UNL1       -0.4628
     23 H         143.5512  143.0348  163.6355 H       1  UNL1        0.1565
     24 C         138.5004  138.9176  164.9694 C.3     1  UNL1        0.0320
     25 C         139.0601  137.8237  164.1091 C.3     1  UNL1        0.0327
     26 C         143.1361  138.8317  165.7279 C.ar    1  UNL1        0.2249
     27 C         144.2664  139.1225  164.7857 C.ar    1  UNL1        0.0593
     28 C         144.0380  139.0774  163.3039 C.ar    1  UNL1        0.0254
     29 C         142.6794  138.7414  162.7643 C.ar    1  UNL1        0.0990
     30 N         142.4511  138.6962  161.2824 N.ar    1  UNL1       -0.2400
     31 C         141.0924  138.3602  160.7428 C.ar    1  UNL1        0.1281
     32 C         139.9621  138.0693  161.6851 C.ar    1  UNL1        0.1566
     33 F         138.6034  137.7333  161.1455 F       1  UNL1       -0.2028
     34 C         140.1904  138.1145  163.1669 C.ar    1  UNL1        0.0261
     35 C         141.5491  138.4505  163.7065 C.ar    1  UNL1        0.1002
     36 N         141.7774  138.4957  165.1883 N.ar    1  UNL1       -0.2104
     37 O         143.3644  138.8769  167.2098 O.3     1  UNL1       -0.4602
     38 C         142.8109  140.0116  168.0197 C.3     1  UNL1        0.2075
     39 C         140.6720  139.8880  169.9709 C.3     1  UNL1        0.1028
     40 C         141.7883  139.0827  170.5669 C.3     1  UNL1        0.0155
     41 C         141.9638  139.7296  169.2251 C.3     1  UNL1        0.0549
     42 C         139.2817  140.4444  170.0573 C.2     1  UNL1        0.3167
     43 O         138.1071  139.5887  169.6861 O.2     1  UNL1       -0.2501
     44 C         140.1306  142.8890  170.2889 C.3     1  UNL1        0.2556
     45 O         139.0661  141.8566  170.5149 O.3     1  UNL1       -0.4444
@<TRIPOS>BOND
     1    44    45    1
     2    45    42    1
     3    42    43    2
     4    39    42    1
     5    39    40    1
     6    40    41    1
     7    41    38    1
     8    38    37    1
     9    37    26    1
    10    26    27   ar
    11    27    28   ar
    12    28    29   ar
    13    29    30   ar
    14    30    31   ar
    15    31    32   ar
    16    32    33    1
    17    32    34   ar
    18    34    25    1
    19    25    24    1
    20    24     1    1
    21     1     2    1
    22     2     3    1
    23     3     4    1
    24     4     9    1
    25     9    11    1
    26    11    12    1
    27    12    13   ar
    28    13    14   ar
    29    14    15   ar
    30    15    16   ar
    31    16    17   ar
    32    16    18    1
    33    18    19   am
    34    19    20    2
    35    19    21    1
    36    21    22    1
    37     4     5    1
    38     5     6    1
    39     4     7    1
    40     7     8    1
    41    34    35   ar
    42    35    36   ar
    43    41    39    1
    44    36    26   ar
    45    35    29   ar
    46     6     1    1
    47     8     1    1
    48    17    12   ar
    49    22    15    1
    50     9    10    1
    51    18    23    1
