@<TRIPOS>MOLECULE
*****
 28 30 0 0 0
SMALL
GASTEIGER

@<TRIPOS>ATOM
      1 C         142.6251  139.8703  167.0296 C.2     1  UNL1        0.2267
      2 O         143.7118  139.0524  166.3971 O.2     1  UNL1       -0.2748
      3 N         141.3724  140.1744  166.2626 N.am    1  UNL1       -0.2695
      4 C         141.0661  139.7311  164.8628 C.3     1  UNL1        0.1205
      5 C         139.7104  140.2579  164.4958 C.2     1  UNL1       -0.0024
      6 C         139.1788  141.0268  165.6689 C.2     1  UNL1       -0.0047
      7 C         140.2059  140.9752  166.7609 C.3     1  UNL1        0.1202
      8 C         139.0095  140.0520  163.1857 C.ar    1  UNL1        0.0271
      9 C         138.8821  141.1896  162.2163 C.ar    1  UNL1        0.0316
     10 C         138.1812  140.9836  160.9063 C.ar    1  UNL1        0.1403
     11 F         138.0538  142.1212  159.9368 F       1  UNL1       -0.2042
     12 C         137.6076  139.6401  160.5656 C.ar    1  UNL1        0.0319
     13 C         137.7350  138.5026  161.5350 C.ar    1  UNL1        0.0319
     14 C         138.4359  138.7085  162.8451 C.ar    1  UNL1        0.1400
     15 F         138.5633  137.5710  163.8145 F       1  UNL1       -0.2042
     16 C         140.0874  141.6124  168.1136 C.ar    1  UNL1       -0.0001
     17 C         139.5324  140.8287  169.2659 C.ar    1  UNL1       -0.0023
     18 C         139.4139  141.4659  170.6186 C.ar    1  UNL1       -0.0003
     19 C         139.8504  142.8869  170.8190 C.ar    1  UNL1       -0.0000
     20 C         140.4054  143.6707  169.6668 C.ar    1  UNL1       -0.0003
     21 C         140.5239  143.0334  168.3141 C.ar    1  UNL1       -0.0023
     22 C         142.3150  139.0680  168.9687 C.3     1  UNL1        0.0105
     23 C         142.7910  140.3841  168.4291 C.3     1  UNL1        0.0833
     24 C         143.2670  141.7002  167.8895 C.3     1  UNL1        0.0105
     25 C         142.9570  140.8979  169.8286 C.3     1  UNL1        0.0738
     26 N         143.3041  139.9510  170.9389 N.3     1  UNL1       -0.3208
     27 H         142.5314  139.3016  171.0860 H       1  UNL1        0.1189
     28 H         143.4726  140.4786  171.7955 H       1  UNL1        0.1189
@<TRIPOS>BOND
     1    22    23    1
     2    23    24    1
     3    23    25    1
     4    25    26    1
     5    23     1    1
     6     1     2    2
     7     1     3   am
     8     3     4    1
     9     4     5    1
    10     5     8    1
    11     8     9   ar
    12     9    10   ar
    13    10    11    1
    14    10    12   ar
    15    12    13   ar
    16    13    14   ar
    17    14    15    1
    18     5     6    2
    19     6     7    1
    20     7    16    1
    21    16    17   ar
    22    17    18   ar
    23    18    19   ar
    24    19    20   ar
    25    20    21   ar
    26     7     3    1
    27    21    16   ar
    28    14     8   ar
    29    26    27    1
    30    26    28    1
@<TRIPOS>MOLECULE
*****
 28 30 0 0 0
SMALL
GASTEIGER

@<TRIPOS>ATOM
      1 C         140.9577  139.8288  166.1175 C.2     1  UNL1        0.2267
      2 O         140.5051  138.6519  165.3051 O.2     1  UNL1       -0.2748
      3 N         141.1578  141.1619  165.4595 N.am    1  UNL1       -0.2695
      4 C         140.9459  141.4686  164.0065 C.3     1  UNL1        0.1205
      5 C         141.2620  142.9186  163.7880 C.2     1  UNL1       -0.0024
      6 C         141.6692  143.5080  165.1058 C.2     1  UNL1       -0.0047
      7 C         141.6048  142.4223  166.1389 C.3     1  UNL1        0.1202
      8 C         141.1844  143.6506  162.4810 C.ar    1  UNL1        0.0271
      9 C         142.0701  143.2449  161.3404 C.ar    1  UNL1        0.0316
     10 C         141.9925  143.9769  160.0335 C.ar    1  UNL1        0.1403
     11 F         142.8782  143.5712  158.8929 F       1  UNL1       -0.2042
     12 C         141.0292  145.1147  159.8672 C.ar    1  UNL1        0.0319
     13 C         140.1435  145.5204  161.0077 C.ar    1  UNL1        0.0319
     14 C         140.2211  144.7884  162.3146 C.ar    1  UNL1        0.1400
     15 F         139.3354  145.1940  163.4553 F       1  UNL1       -0.2042
     16 C         141.9303  142.5709  167.5956 C.ar    1  UNL1       -0.0001
     17 C         140.8568  142.9606  168.5680 C.ar    1  UNL1       -0.0023
     18 C         141.1823  143.1092  170.0247 C.ar    1  UNL1       -0.0003
     19 C         142.5813  142.8682  170.5089 C.ar    1  UNL1       -0.0000
     20 C         143.6549  142.4785  169.5365 C.ar    1  UNL1       -0.0003
     21 C         143.3294  142.3299  168.0799 C.ar    1  UNL1       -0.0023
     22 C         139.7806  140.0267  167.8710 C.3     1  UNL1        0.0105
     23 C         141.2104  139.6727  167.5878 C.3     1  UNL1        0.0833
     24 C         142.6403  139.3188  167.3045 C.3     1  UNL1        0.0105
     25 C         141.4631  139.5166  169.0581 C.3     1  UNL1        0.0738
     26 N         142.7783  138.9804  169.5403 N.3     1  UNL1       -0.3208
     27 H         142.8779  138.0088  169.2459 H       1  UNL1        0.1189
     28 H         142.8141  139.0325  170.5583 H       1  UNL1        0.1189
@<TRIPOS>BOND
     1    22    23    1
     2    23    24    1
     3    23    25    1
     4    25    26    1
     5    23     1    1
     6     1     2    2
     7     1     3   am
     8     3     4    1
     9     4     5    1
    10     5     8    1
    11     8     9   ar
    12     9    10   ar
    13    10    11    1
    14    10    12   ar
    15    12    13   ar
    16    13    14   ar
    17    14    15    1
    18     5     6    2
    19     6     7    1
    20     7    16    1
    21    16    17   ar
    22    17    18   ar
    23    18    19   ar
    24    19    20   ar
    25    20    21   ar
    26     7     3    1
    27    21    16   ar
    28    14     8   ar
    29    26    27    1
    30    26    28    1
@<TRIPOS>MOLECULE
*****
 28 30 0 0 0
SMALL
GASTEIGER

@<TRIPOS>ATOM
      1 C         140.9043  139.8185  166.2321 C.2     1  UNL1        0.2267
      2 O         140.4326  138.6365  165.4382 O.2     1  UNL1       -0.2748
      3 N         141.0717  141.1515  165.5649 N.am    1  UNL1       -0.2695
      4 C         140.8077  141.4534  164.1195 C.3     1  UNL1        0.1205
      5 C         141.1054  142.9051  163.8873 C.2     1  UNL1       -0.0024
      6 C         141.5534  143.5004  165.1891 C.2     1  UNL1       -0.0047
      7 C         141.5326  142.4166  166.2260 C.3     1  UNL1        0.1202
      8 C         140.9776  143.6336  162.5822 C.ar    1  UNL1        0.0271
      9 C         140.1770  144.8997  162.5054 C.ar    1  UNL1        0.0316
     10 C         140.0492  145.6281  161.2004 C.ar    1  UNL1        0.1403
     11 F         139.2486  146.8943  161.1235 F       1  UNL1       -0.2042
     12 C         140.7219  145.0904  159.9723 C.ar    1  UNL1        0.0319
     13 C         141.5224  143.8242  160.0491 C.ar    1  UNL1        0.0319
     14 C         141.6503  143.0958  161.3541 C.ar    1  UNL1        0.1400
     15 F         142.4509  141.8296  161.4310 F       1  UNL1       -0.2042
     16 C         141.9070  142.5709  167.6703 C.ar    1  UNL1       -0.0001
     17 C         143.3207  142.3278  168.1088 C.ar    1  UNL1       -0.0023
     18 C         143.6950  142.4821  169.5531 C.ar    1  UNL1       -0.0003
     19 C         142.6556  142.8795  170.5589 C.ar    1  UNL1       -0.0000
     20 C         141.2418  143.1226  170.1204 C.ar    1  UNL1       -0.0003
     21 C         140.8676  142.9683  168.6762 C.ar    1  UNL1       -0.0023
     22 C         142.6279  139.3143  167.3610 C.3     1  UNL1        0.0105
     23 C         141.2085  139.6676  167.6931 C.3     1  UNL1        0.0833
     24 C         139.7891  140.0209  168.0252 C.3     1  UNL1        0.0105
     25 C         141.5128  139.5166  169.1542 C.3     1  UNL1        0.0738
     26 N         142.8341  138.9570  169.5912 N.3     1  UNL1       -0.3208
     27 H         142.9030  137.9816  169.3009 H       1  UNL1        0.1189
     28 H         142.9089  139.0156  170.6068 H       1  UNL1        0.1189
@<TRIPOS>BOND
     1    22    23    1
     2    23    24    1
     3    23    25    1
     4    25    26    1
     5    23     1    1
     6     1     2    2
     7     1     3   am
     8     3     4    1
     9     4     5    1
    10     5     8    1
    11     8     9   ar
    12     9    10   ar
    13    10    11    1
    14    10    12   ar
    15    12    13   ar
    16    13    14   ar
    17    14    15    1
    18     5     6    2
    19     6     7    1
    20     7    16    1
    21    16    17   ar
    22    17    18   ar
    23    18    19   ar
    24    19    20   ar
    25    20    21   ar
    26     7     3    1
    27    21    16   ar
    28    14     8   ar
    29    26    27    1
    30    26    28    1
@<TRIPOS>MOLECULE
*****
 28 30 0 0 0
SMALL
GASTEIGER

@<TRIPOS>ATOM
      1 C         139.0636  143.3144  163.7744 C.2     1  UNL1        0.2267
      2 O         138.7888  144.7680  164.0221 O.2     1  UNL1       -0.2748
      3 N         139.7490  142.4911  164.8243 N.am    1  UNL1       -0.2695
      4 C         140.2155  142.9807  166.1633 C.3     1  UNL1        0.1205
      5 C         140.8431  141.8259  166.8862 C.2     1  UNL1       -0.0024
      6 C         140.7646  140.6226  165.9940 C.2     1  UNL1       -0.0047
      7 C         140.0884  141.0337  164.7197 C.3     1  UNL1        0.1202
      8 C         141.4439  141.8671  168.2600 C.ar    1  UNL1        0.0271
      9 C         142.8787  142.2657  168.4396 C.ar    1  UNL1        0.0316
     10 C         143.4794  142.3069  169.8134 C.ar    1  UNL1        0.1403
     11 F         144.9143  142.7055  169.9930 F       1  UNL1       -0.2042
     12 C         142.6451  141.9496  171.0077 C.ar    1  UNL1        0.0319
     13 C         141.2103  141.5510  170.8282 C.ar    1  UNL1        0.0319
     14 C         140.6096  141.5098  169.4544 C.ar    1  UNL1        0.1400
     15 F         139.1747  141.1112  169.2748 F       1  UNL1       -0.2042
     16 C         139.8020  140.1438  163.5467 C.ar    1  UNL1       -0.0001
     17 C         140.8019  140.0228  162.4352 C.ar    1  UNL1       -0.0023
     18 C         140.5154  139.1328  161.2622 C.ar    1  UNL1       -0.0003
     19 C         139.2290  138.3639  161.2008 C.ar    1  UNL1       -0.0000
     20 C         138.2290  138.4848  162.3124 C.ar    1  UNL1       -0.0003
     21 C         138.5156  139.3748  163.4852 C.ar    1  UNL1       -0.0023
     22 C         139.9547  143.1031  161.8611 C.3     1  UNL1        0.0105
     23 C         138.6528  142.6840  162.4768 C.3     1  UNL1        0.0833
     24 C         137.3508  142.2648  163.0925 C.3     1  UNL1        0.0105
     25 C         138.2421  142.0536  161.1791 C.3     1  UNL1        0.0738
     26 N         138.3603  142.8267  159.8991 N.3     1  UNL1       -0.3208
     27 H         137.7142  143.6157  159.9176 H       1  UNL1        0.1189
     28 H         138.1322  142.2188  159.1125 H       1  UNL1        0.1189
@<TRIPOS>BOND
     1    22    23    1
     2    23    24    1
     3    23    25    1
     4    25    26    1
     5    23     1    1
     6     1     2    2
     7     1     3   am
     8     3     4    1
     9     4     5    1
    10     5     8    1
    11     8     9   ar
    12     9    10   ar
    13    10    11    1
    14    10    12   ar
    15    12    13   ar
    16    13    14   ar
    17    14    15    1
    18     5     6    2
    19     6     7    1
    20     7    16    1
    21    16    17   ar
    22    17    18   ar
    23    18    19   ar
    24    19    20   ar
    25    20    21   ar
    26     7     3    1
    27    21    16   ar
    28    14     8   ar
    29    26    27    1
    30    26    28    1
@<TRIPOS>MOLECULE
*****
 28 30 0 0 0
SMALL
GASTEIGER

@<TRIPOS>ATOM
      1 C         142.8244  140.4709  166.5371 C.2     1  UNL1        0.2267
      2 O         143.9824  139.8854  165.7846 O.2     1  UNL1       -0.2748
      3 N         141.4898  140.6134  165.8674 N.am    1  UNL1       -0.2695
      4 C         141.1637  140.2168  164.4580 C.3     1  UNL1        0.1205
      5 C         139.7193  140.5358  164.2091 C.2     1  UNL1       -0.0024
      6 C         139.1527  141.1295  165.4646 C.2     1  UNL1       -0.0047
      7 C         140.2469  141.1775  166.4895 C.3     1  UNL1        0.1202
      8 C         138.9726  140.3021  162.9292 C.ar    1  UNL1        0.0271
      9 C         138.1934  139.0350  162.7362 C.ar    1  UNL1        0.0316
     10 C         137.4468  138.8013  161.4564 C.ar    1  UNL1        0.1403
     11 F         136.6675  137.5342  161.2633 F       1  UNL1       -0.2042
     12 C         137.4794  139.8347  160.3696 C.ar    1  UNL1        0.0319
     13 C         138.2586  141.1018  160.5627 C.ar    1  UNL1        0.0319
     14 C         139.0052  141.3355  161.8425 C.ar    1  UNL1        0.1400
     15 F         139.7845  142.6026  162.0356 F       1  UNL1       -0.2042
     16 C         140.1204  141.6981  167.8906 C.ar    1  UNL1       -0.0001
     17 C         140.4254  143.1367  168.1865 C.ar    1  UNL1       -0.0023
     18 C         140.2989  143.6573  169.5876 C.ar    1  UNL1       -0.0003
     19 C         139.8675  142.7394  170.6926 C.ar    1  UNL1       -0.0000
     20 C         139.5625  141.3008  170.3967 C.ar    1  UNL1       -0.0003
     21 C         139.6890  140.7803  168.9957 C.ar    1  UNL1       -0.0023
     22 C         142.6652  139.5305  168.4318 C.3     1  UNL1        0.0105
     23 C         143.0010  140.9138  167.9593 C.3     1  UNL1        0.0833
     24 C         143.3368  142.2973  167.4867 C.3     1  UNL1        0.0105
     25 C         143.1776  141.3568  169.3815 C.3     1  UNL1        0.0738
     26 N         143.3280  140.3372  170.4714 N.3     1  UNL1       -0.3208
     27 H         142.4610  139.8080  170.5639 H       1  UNL1        0.1189
     28 H         143.5341  140.8088  171.3520 H       1  UNL1        0.1189
@<TRIPOS>BOND
     1    22    23    1
     2    23    24    1
     3    23    25    1
     4    25    26    1
     5    23     1    1
     6     1     2    2
     7     1     3   am
     8     3     4    1
     9     4     5    1
    10     5     8    1
    11     8     9   ar
    12     9    10   ar
    13    10    11    1
    14    10    12   ar
    15    12    13   ar
    16    13    14   ar
    17    14    15    1
    18     5     6    2
    19     6     7    1
    20     7    16    1
    21    16    17   ar
    22    17    18   ar
    23    18    19   ar
    24    19    20   ar
    25    20    21   ar
    26     7     3    1
    27    21    16   ar
    28    14     8   ar
    29    26    27    1
    30    26    28    1
@<TRIPOS>MOLECULE
*****
 28 30 0 0 0
SMALL
GASTEIGER

@<TRIPOS>ATOM
      1 C         142.9782  143.6287  163.9144 C.2     1  UNL1        0.2267
      2 O         144.4141  144.0296  164.0797 O.2     1  UNL1       -0.2748
      3 N         142.2745  142.8896  165.0137 N.am    1  UNL1       -0.2695
      4 C         142.8737  142.4845  166.3279 C.3     1  UNL1        0.1205
      5 C         141.8176  141.7704  167.1183 C.2     1  UNL1       -0.0024
      6 C         140.5658  141.7342  166.2928 C.2     1  UNL1       -0.0047
      7 C         140.8481  142.4259  164.9921 C.3     1  UNL1        0.1202
      8 C         141.9841  141.1938  168.4931 C.ar    1  UNL1        0.0271
      9 C         142.3939  139.7606  168.6606 C.ar    1  UNL1        0.0316
     10 C         142.5605  139.1841  170.0353 C.ar    1  UNL1        0.1403
     11 F         142.9703  137.7509  170.2029 F       1  UNL1       -0.2042
     12 C         142.3172  140.0407  171.2424 C.ar    1  UNL1        0.0319
     13 C         141.9074  141.4738  171.0748 C.ar    1  UNL1        0.0319
     14 C         141.7409  142.0504  169.7002 C.ar    1  UNL1        0.1400
     15 F         141.3311  143.4836  169.5325 F       1  UNL1       -0.2042
     16 C         139.8750  142.6199  163.8671 C.ar    1  UNL1       -0.0001
     17 C         139.8045  141.6159  162.7550 C.ar    1  UNL1       -0.0023
     18 C         138.8313  141.8098  161.6300 C.ar    1  UNL1       -0.0003
     19 C         137.9288  143.0077  161.6174 C.ar    1  UNL1       -0.0000
     20 C         137.9993  144.0118  162.7296 C.ar    1  UNL1       -0.0003
     21 C         138.9724  143.8178  163.8544 C.ar    1  UNL1       -0.0023
     22 C         141.7962  145.2627  163.2566 C.3     1  UNL1        0.0105
     23 C         142.2459  143.9669  162.6497 C.3     1  UNL1        0.0833
     24 C         142.6957  142.6710  162.0427 C.3     1  UNL1        0.0105
     25 C         141.5136  144.3051  161.3850 C.3     1  UNL1        0.0738
     26 N         140.8726  145.6519  161.2268 N.3     1  UNL1       -0.3208
     27 H         140.1090  145.7458  161.8965 H       1  UNL1        0.1189
     28 H         140.5071  145.7453  160.2791 H       1  UNL1        0.1189
@<TRIPOS>BOND
     1    22    23    1
     2    23    24    1
     3    23    25    1
     4    25    26    1
     5    23     1    1
     6     1     2    2
     7     1     3   am
     8     3     4    1
     9     4     5    1
    10     5     8    1
    11     8     9   ar
    12     9    10   ar
    13    10    11    1
    14    10    12   ar
    15    12    13   ar
    16    13    14   ar
    17    14    15    1
    18     5     6    2
    19     6     7    1
    20     7    16    1
    21    16    17   ar
    22    17    18   ar
    23    18    19   ar
    24    19    20   ar
    25    20    21   ar
    26     7     3    1
    27    21    16   ar
    28    14     8   ar
    29    26    27    1
    30    26    28    1
@<TRIPOS>MOLECULE
*****
 28 30 0 0 0
SMALL
GASTEIGER

@<TRIPOS>ATOM
      1 C         138.7608  140.8049  163.5004 C.2     1  UNL1        0.2267
      2 O         138.0871  139.4699  163.6168 O.2     1  UNL1       -0.2748
      3 N         139.5379  141.3564  164.6589 N.am    1  UNL1       -0.2695
      4 C         139.7282  140.6909  165.9896 C.3     1  UNL1        0.1205
      5 C         140.5690  141.5934  166.8432 C.2     1  UNL1       -0.0024
      6 C         140.8984  142.8166  166.0400 C.2     1  UNL1       -0.0047
      7 C         140.2611  142.6702  164.6900 C.3     1  UNL1        0.1202
      8 C         141.0040  141.3204  168.2526 C.ar    1  UNL1        0.0271
      9 C         141.6089  139.9945  168.6074 C.ar    1  UNL1        0.0316
     10 C         142.0439  139.7216  170.0167 C.ar    1  UNL1        0.1403
     11 F         142.6488  138.3956  170.3715 F       1  UNL1       -0.2042
     12 C         141.8740  140.7747  171.0713 C.ar    1  UNL1        0.0319
     13 C         141.2691  142.1007  170.7165 C.ar    1  UNL1        0.0319
     14 C         140.8341  142.3735  169.3072 C.ar    1  UNL1        0.1400
     15 F         140.2292  143.6996  168.9524 F       1  UNL1       -0.2042
     16 C         140.3343  143.6632  163.5682 C.ar    1  UNL1       -0.0001
     17 C         141.4510  143.5859  162.5698 C.ar    1  UNL1       -0.0023
     18 C         141.5242  144.5789  161.4479 C.ar    1  UNL1       -0.0003
     19 C         140.4806  145.6491  161.3244 C.ar    1  UNL1       -0.0000
     20 C         139.3637  145.7265  162.3229 C.ar    1  UNL1       -0.0003
     21 C         139.2907  144.7335  163.4446 C.ar    1  UNL1       -0.0023
     22 C         137.4416  142.2894  162.7548 C.3     1  UNL1        0.0105
     23 C         138.6576  141.5886  162.2255 C.3     1  UNL1        0.0833
     24 C         139.8736  140.8878  161.6962 C.3     1  UNL1        0.0105
     25 C         138.5543  142.3723  160.9507 C.3     1  UNL1        0.0738
     26 N         139.4618  142.0546  159.7994 N.3     1  UNL1       -0.3208
     27 H         140.4249  142.2718  160.0557 H       1  UNL1        0.1189
     28 H         139.1915  142.6124  158.9894 H       1  UNL1        0.1189
@<TRIPOS>BOND
     1    22    23    1
     2    23    24    1
     3    23    25    1
     4    25    26    1
     5    23     1    1
     6     1     2    2
     7     1     3   am
     8     3     4    1
     9     4     5    1
    10     5     8    1
    11     8     9   ar
    12     9    10   ar
    13    10    11    1
    14    10    12   ar
    15    12    13   ar
    16    13    14   ar
    17    14    15    1
    18     5     6    2
    19     6     7    1
    20     7    16    1
    21    16    17   ar
    22    17    18   ar
    23    18    19   ar
    24    19    20   ar
    25    20    21   ar
    26     7     3    1
    27    21    16   ar
    28    14     8   ar
    29    26    27    1
    30    26    28    1
@<TRIPOS>MOLECULE
*****
 28 30 0 0 0
SMALL
GASTEIGER

@<TRIPOS>ATOM
      1 C         142.4373  139.1109  163.9664 C.2     1  UNL1        0.2267
      2 O         143.8399  138.7462  164.3531 O.2     1  UNL1       -0.2748
      3 N         141.5529  139.8288  164.9422 N.am    1  UNL1       -0.2695
      4 C         141.9302  140.2454  166.3329 C.3     1  UNL1        0.1205
      5 C         140.7463  140.9303  166.9490 C.2     1  UNL1       -0.0024
      6 C         139.6373  140.9369  165.9390 C.2     1  UNL1       -0.0047
      7 C         140.1357  140.2562  164.6988 C.3     1  UNL1        0.1202
      8 C         140.6827  141.5072  168.3322 C.ar    1  UNL1        0.0271
      9 C         140.4613  142.9786  168.5217 C.ar    1  UNL1        0.0316
     10 C         140.3977  143.5554  169.9048 C.ar    1  UNL1        0.1403
     11 F         140.1762  145.0268  170.0944 F       1  UNL1       -0.2042
     12 C         140.5555  142.6608  171.0985 C.ar    1  UNL1        0.0319
     13 C         140.7770  141.1895  170.9090 C.ar    1  UNL1        0.0319
     14 C         140.8406  140.6126  169.5259 C.ar    1  UNL1        0.1400
     15 F         141.0621  139.1412  169.3363 F       1  UNL1       -0.2042
     16 C         139.3543  140.0407  163.4367 C.ar    1  UNL1       -0.0001
     17 C         138.5852  138.7682  163.2388 C.ar    1  UNL1       -0.0023
     18 C         137.8037  138.5527  161.9767 C.ar    1  UNL1       -0.0003
     19 C         137.7914  139.6097  160.9125 C.ar    1  UNL1       -0.0000
     20 C         138.5605  140.8823  161.1104 C.ar    1  UNL1       -0.0003
     21 C         139.3419  141.0977  162.3725 C.ar    1  UNL1       -0.0023
     22 C         142.4050  140.0755  162.0774 C.3     1  UNL1        0.0105
     23 C         141.9190  138.7577  162.6037 C.3     1  UNL1        0.0833
     24 C         141.4330  137.4398  163.1301 C.3     1  UNL1        0.0105
     25 C         141.4008  138.4045  161.2411 C.3     1  UNL1        0.0738
     26 N         141.6656  139.3149  160.0788 N.3     1  UNL1       -0.3208
     27 H         141.1791  140.1999  160.2223 H       1  UNL1        0.1189
     28 H         141.3296  138.8775  159.2208 H       1  UNL1        0.1189
@<TRIPOS>BOND
     1    22    23    1
     2    23    24    1
     3    23    25    1
     4    25    26    1
     5    23     1    1
     6     1     2    2
     7     1     3   am
     8     3     4    1
     9     4     5    1
    10     5     8    1
    11     8     9   ar
    12     9    10   ar
    13    10    11    1
    14    10    12   ar
    15    12    13   ar
    16    13    14   ar
    17    14    15    1
    18     5     6    2
    19     6     7    1
    20     7    16    1
    21    16    17   ar
    22    17    18   ar
    23    18    19   ar
    24    19    20   ar
    25    20    21   ar
    26     7     3    1
    27    21    16   ar
    28    14     8   ar
    29    26    27    1
    30    26    28    1
@<TRIPOS>MOLECULE
*****
 28 30 0 0 0
SMALL
GASTEIGER

@<TRIPOS>ATOM
      1 C         143.9580  139.7985  163.5844 C.2     1  UNL1        0.2267
      2 O         145.1881  139.3971  164.3432 O.2     1  UNL1       -0.2748
      3 N         142.7636  140.3304  164.3196 N.am    1  UNL1       -0.2695
      4 C         142.6528  140.5165  165.8039 C.3     1  UNL1        0.1205
      5 C         141.2910  141.0707  166.1012 C.2     1  UNL1       -0.0024
      6 C         140.5601  141.2271  164.8007 C.2     1  UNL1       -0.0047
      7 C         141.4702  140.7696  163.6996 C.3     1  UNL1        0.1202
      8 C         140.7543  141.4090  167.4604 C.ar    1  UNL1        0.0271
      9 C         141.0981  142.7231  168.0968 C.ar    1  UNL1        0.0316
     10 C         140.5614  143.0614  169.4560 C.ar    1  UNL1        0.1403
     11 F         140.9053  144.3755  170.0924 F       1  UNL1       -0.2042
     12 C         139.6808  142.0856  170.1788 C.ar    1  UNL1        0.0319
     13 C         139.3370  140.7716  169.5425 C.ar    1  UNL1        0.0319
     14 C         139.8737  140.4333  168.1833 C.ar    1  UNL1        0.1400
     15 F         139.5298  139.1192  167.5469 F       1  UNL1       -0.2042
     16 C         141.1442  140.7540  162.2355 C.ar    1  UNL1       -0.0001
     17 C         140.5072  139.5426  161.6218 C.ar    1  UNL1       -0.0023
     18 C         140.1812  139.5270  160.1577 C.ar    1  UNL1       -0.0003
     19 C         140.4923  140.7228  159.3074 C.ar    1  UNL1       -0.0000
     20 C         141.1294  141.9344  159.9211 C.ar    1  UNL1       -0.0003
     21 C         141.4553  141.9499  161.3851 C.ar    1  UNL1       -0.0023
     22 C         144.4580  141.0625  161.9559 C.3     1  UNL1        0.0105
     23 C         143.9223  139.6680  162.0905 C.3     1  UNL1        0.0833
     24 C         143.3865  138.2734  162.2251 C.3     1  UNL1        0.0105
     25 C         143.8866  139.5376  160.5966 C.3     1  UNL1        0.0738
     26 N         143.6090  138.2049  159.9666 N.3     1  UNL1       -0.3208
     27 H         144.3745  137.5640  160.1756 H       1  UNL1        0.1189
     28 H         143.5259  138.3172  158.9562 H       1  UNL1        0.1189
@<TRIPOS>BOND
     1    22    23    1
     2    23    24    1
     3    23    25    1
     4    25    26    1
     5    23     1    1
     6     1     2    2
     7     1     3   am
     8     3     4    1
     9     4     5    1
    10     5     8    1
    11     8     9   ar
    12     9    10   ar
    13    10    11    1
    14    10    12   ar
    15    12    13   ar
    16    13    14   ar
    17    14    15    1
    18     5     6    2
    19     6     7    1
    20     7    16    1
    21    16    17   ar
    22    17    18   ar
    23    18    19   ar
    24    19    20   ar
    25    20    21   ar
    26     7     3    1
    27    21    16   ar
    28    14     8   ar
    29    26    27    1
    30    26    28    1
