@<TRIPOS>MOLECULE
*****
 32 36 0 0 0
SMALL
GASTEIGER

@<TRIPOS>ATOM
      1 C         142.7206  137.7708  161.8156 C.3     1  UNL1        0.0731
      2 N         141.6181  138.1968  162.7391 N.3     1  UNL1       -0.2712
      3 C         140.9097  137.3209  163.7295 C.3     1  UNL1        0.0738
      4 C         139.8842  138.1564  164.4368 C.3     1  UNL1        0.0372
      5 C         138.8126  138.1314  165.4861 C.3     1  UNL1        0.0245
      6 C         138.2249  139.5083  165.5815 C.3     1  UNL1        0.0910
      7 N         138.9334  140.3842  164.5910 N.pl3   1  UNL1       -0.3042
      8 C         139.9589  139.5487  163.8837 C.3     1  UNL1        0.0902
      9 C         141.0305  139.5737  162.8344 C.3     1  UNL1        0.0921
     10 C         138.6638  141.8400  164.3503 C.ar    1  UNL1        0.1034
     11 C         139.1379  142.8640  165.3384 C.ar    1  UNL1        0.1555
     12 F         139.8818  142.4322  166.5674 F       1  UNL1       -0.2028
     13 C         138.8682  144.3198  165.0977 C.ar    1  UNL1        0.0311
     14 C         138.1244  144.7516  163.8688 C.ar    1  UNL1        0.0047
     15 C         137.6502  143.7275  162.8805 C.ar    1  UNL1        0.0311
     16 C         137.9199  142.2717  163.1213 C.ar    1  UNL1        0.1555
     17 F         137.4457  141.2477  162.1331 F       1  UNL1       -0.2028
     18 C         144.0686  138.4225  161.9059 C.3     1  UNL1        0.0294
     19 C         144.1750  139.8847  162.2234 C.3     1  UNL1        0.0666
     20 S         144.7398  140.3270  163.5407 S.3     1  UNL1       -0.0756
     21 C         142.9711  142.2085  165.5361 C.3     1  UNL1        0.1340
     22 N         143.2775  140.7539  165.7372 N.ar    1  UNL1       -0.2872
     23 C         144.0904  139.8891  164.8200 C.ar    1  UNL1        0.1933
     24 N         144.1401  138.5095  165.4068 N.ar    1  UNL1       -0.1221
     25 N         143.3577  138.5217  166.6865 N.ar    1  UNL1       -0.1266
     26 C         142.8246  139.9088  166.8908 C.ar    1  UNL1        0.1862
     27 C         141.9859  140.3698  168.0458 C.ar    1  UNL1        0.1362
     28 C         142.5651  141.3019  169.0684 C.ar    1  UNL1        0.1211
     29 N         141.7264  141.7629  170.2234 N.ar    1  UNL1       -0.2390
     30 C         140.3084  141.2918  170.3558 C.ar    1  UNL1        0.1195
     31 C         139.7292  140.3598  169.3332 C.ar    1  UNL1        0.1196
     32 N         140.5680  139.8988  168.1782 N.ar    1  UNL1       -0.2375
@<TRIPOS>BOND
     1    21    22    1
     2    22    23   ar
     3    23    20    1
     4    20    19    1
     5    19    18    1
     6    18     1    1
     7     1     2    1
     8     2     3    1
     9     3     4    1
    10     4     5    1
    11     5     6    1
    12     6     7    1
    13     7    10    1
    14    10    11   ar
    15    11    12    1
    16    11    13   ar
    17    13    14   ar
    18    14    15   ar
    19    15    16   ar
    20    16    17    1
    21     7     8    1
    22     8     9    1
    23    23    24   ar
    24    24    25   ar
    25    25    26   ar
    26    26    27    1
    27    27    28   ar
    28    28    29   ar
    29    29    30   ar
    30    30    31   ar
    31    31    32   ar
    32    26    22   ar
    33    32    27   ar
    34     9     2    1
    35     8     4    1
    36    16    10   ar
@<TRIPOS>MOLECULE
*****
 32 36 0 0 0
SMALL
GASTEIGER

@<TRIPOS>ATOM
      1 C         138.6450  141.6942  159.6712 C.3     1  UNL1        0.0731
      2 N         138.7765  142.2908  161.0412 N.3     1  UNL1       -0.2712
      3 C         137.6554  142.8296  161.8795 C.3     1  UNL1        0.0738
      4 C         138.2382  143.3252  163.1697 C.3     1  UNL1        0.0372
      5 C         137.9056  143.9644  164.4853 C.3     1  UNL1        0.0245
      6 C         139.1813  144.1270  165.2575 C.3     1  UNL1        0.0910
      7 N         140.3024  143.5882  164.4190 N.pl3   1  UNL1       -0.3042
      8 C         139.7195  143.0927  163.1288 C.3     1  UNL1        0.0902
      9 C         140.0522  142.4534  161.8133 C.3     1  UNL1        0.0921
     10 C         141.7519  143.5515  164.8034 C.ar    1  UNL1        0.1034
     11 C         142.7400  144.4236  164.0873 C.ar    1  UNL1        0.1555
     12 F         142.2788  145.3325  162.9867 F       1  UNL1       -0.2028
     13 C         144.1895  144.3868  164.4717 C.ar    1  UNL1        0.0311
     14 C         144.6508  143.4779  165.5722 C.ar    1  UNL1        0.0047
     15 C         143.6626  142.6058  166.2883 C.ar    1  UNL1        0.0311
     16 C         142.2131  142.6425  165.9040 C.ar    1  UNL1        0.1555
     17 F         141.2249  141.7704  166.6201 F       1  UNL1       -0.2028
     18 C         138.2631  140.2521  159.5147 C.3     1  UNL1        0.0294
     19 C         137.2351  139.6455  160.4232 C.3     1  UNL1        0.0666
     20 S         137.6533  138.6716  161.4845 S.3     1  UNL1       -0.0756
     21 C         140.8907  138.3699  161.2048 C.3     1  UNL1        0.1340
     22 N         140.1564  138.9348  162.3846 N.ar    1  UNL1       -0.2872
     23 C         138.6684  139.0735  162.5131 C.ar    1  UNL1        0.1933
     24 N         138.3736  139.6845  163.8509 N.ar    1  UNL1       -0.1221
     25 N         139.6795  139.9236  164.5492 N.ar    1  UNL1       -0.1266
     26 C         140.7814  139.4602  163.6430 C.ar    1  UNL1        0.1862
     27 C         142.2502  139.5130  163.9425 C.ar    1  UNL1        0.1362
     28 C         142.8120  138.7180  165.0837 C.ar    1  UNL1        0.1211
     29 N         144.2809  138.7708  165.3833 N.ar    1  UNL1       -0.2390
     30 C         145.1879  139.6187  164.5415 C.ar    1  UNL1        0.1195
     31 C         144.6261  140.4137  163.4003 C.ar    1  UNL1        0.1196
     32 N         143.1572  140.3609  163.1008 N.ar    1  UNL1       -0.2375
@<TRIPOS>BOND
     1    21    22    1
     2    22    23   ar
     3    23    20    1
     4    20    19    1
     5    19    18    1
     6    18     1    1
     7     1     2    1
     8     2     3    1
     9     3     4    1
    10     4     5    1
    11     5     6    1
    12     6     7    1
    13     7    10    1
    14    10    11   ar
    15    11    12    1
    16    11    13   ar
    17    13    14   ar
    18    14    15   ar
    19    15    16   ar
    20    16    17    1
    21     7     8    1
    22     8     9    1
    23    23    24   ar
    24    24    25   ar
    25    25    26   ar
    26    26    27    1
    27    27    28   ar
    28    28    29   ar
    29    29    30   ar
    30    30    31   ar
    31    31    32   ar
    32    26    22   ar
    33    32    27   ar
    34     9     2    1
    35     8     4    1
    36    16    10   ar
@<TRIPOS>MOLECULE
*****
 32 36 0 0 0
SMALL
GASTEIGER

@<TRIPOS>ATOM
      1 C         138.6050  138.1902  163.1105 C.3     1  UNL1        0.0731
      2 N         139.7030  138.4434  164.1006 N.3     1  UNL1       -0.2712
      3 C         141.0690  137.8240  164.0799 C.3     1  UNL1        0.0738
      4 C         141.8379  138.3582  165.2518 C.3     1  UNL1        0.0372
      5 C         143.1574  138.3055  165.9633 C.3     1  UNL1        0.0245
      6 C         143.0821  139.2225  167.1481 C.3     1  UNL1        0.0910
      7 N         141.7161  139.8419  167.1687 N.pl3   1  UNL1       -0.3042
      8 C         140.9471  139.3077  165.9968 C.3     1  UNL1        0.0902
      9 C         139.6277  139.3604  165.2853 C.3     1  UNL1        0.0921
     10 C         141.2082  140.8232  168.1832 C.ar    1  UNL1        0.1034
     11 C         141.0396  140.4037  169.6135 C.ar    1  UNL1        0.1555
     12 F         141.3789  139.0030  170.0293 F       1  UNL1       -0.2028
     13 C         140.5317  141.3850  170.6279 C.ar    1  UNL1        0.0311
     14 C         140.1924  142.7857  170.2122 C.ar    1  UNL1        0.0047
     15 C         140.3610  143.2052  168.7819 C.ar    1  UNL1        0.0311
     16 C         140.8689  142.2239  167.7674 C.ar    1  UNL1        0.1555
     17 F         141.0375  142.6434  166.3372 F       1  UNL1       -0.2028
     18 C         137.9541  139.3410  162.4019 C.3     1  UNL1        0.0294
     19 C         137.6297  139.2358  160.9411 C.3     1  UNL1        0.0666
     20 S         138.2968  140.1503  159.9570 S.3     1  UNL1       -0.0756
     21 C         141.1771  140.5972  161.4247 C.3     1  UNL1        0.1340
     22 N         140.1825  141.6689  161.0897 N.ar    1  UNL1       -0.2872
     23 C         138.8586  141.4635  160.4151 C.ar    1  UNL1        0.1933
     24 N         138.1950  142.8018  160.2790 N.ar    1  UNL1       -0.1221
     25 N         139.1088  143.8345  160.8695 N.ar    1  UNL1       -0.1266
     26 C         140.3372  143.1343  161.3706 C.ar    1  UNL1        0.1862
     27 C         141.5136  143.7852  162.0357 C.ar    1  UNL1        0.1362
     28 C         142.8936  143.5834  161.4837 C.ar    1  UNL1        0.1211
     29 N         144.0700  144.2343  162.1489 N.ar    1  UNL1       -0.2390
     30 C         143.8663  145.0871  163.3660 C.ar    1  UNL1        0.1195
     31 C         142.4862  145.2890  163.9179 C.ar    1  UNL1        0.1196
     32 N         141.3098  144.6380  163.2527 N.ar    1  UNL1       -0.2375
@<TRIPOS>BOND
     1    21    22    1
     2    22    23   ar
     3    23    20    1
     4    20    19    1
     5    19    18    1
     6    18     1    1
     7     1     2    1
     8     2     3    1
     9     3     4    1
    10     4     5    1
    11     5     6    1
    12     6     7    1
    13     7    10    1
    14    10    11   ar
    15    11    12    1
    16    11    13   ar
    17    13    14   ar
    18    14    15   ar
    19    15    16   ar
    20    16    17    1
    21     7     8    1
    22     8     9    1
    23    23    24   ar
    24    24    25   ar
    25    25    26   ar
    26    26    27    1
    27    27    28   ar
    28    28    29   ar
    29    29    30   ar
    30    30    31   ar
    31    31    32   ar
    32    26    22   ar
    33    32    27   ar
    34     9     2    1
    35     8     4    1
    36    16    10   ar
@<TRIPOS>MOLECULE
*****
 32 36 0 0 0
SMALL
GASTEIGER

@<TRIPOS>ATOM
      1 C         140.7215  137.1792  164.2759 C.3     1  UNL1        0.0731
      2 N         141.5733  138.1111  163.4659 N.3     1  UNL1       -0.2712
      3 C         142.1673  137.8176  162.1202 C.3     1  UNL1        0.0738
      4 C         142.9417  139.0252  161.6821 C.3     1  UNL1        0.0372
      5 C         143.7875  139.5902  160.5796 C.3     1  UNL1        0.0245
      6 C         144.1948  140.9792  160.9731 C.3     1  UNL1        0.0910
      7 N         143.6006  141.2727  162.3189 N.pl3   1  UNL1       -0.3042
      8 C         142.8262  140.0651  162.7570 C.3     1  UNL1        0.0902
      9 C         141.9805  139.5001  163.8595 C.3     1  UNL1        0.0921
     10 C         143.7540  142.5496  163.0909 C.ar    1  UNL1        0.1034
     11 C         143.4013  143.8597  162.4512 C.ar    1  UNL1        0.1555
     12 F         142.8952  143.8930  161.0395 F       1  UNL1       -0.2028
     13 C         143.5547  145.1366  163.2232 C.ar    1  UNL1        0.0311
     14 C         144.0607  145.1034  164.6348 C.ar    1  UNL1        0.0047
     15 C         144.4135  143.7933  165.2746 C.ar    1  UNL1        0.0311
     16 C         144.2601  142.5164  164.5026 C.ar    1  UNL1        0.1555
     17 F         144.6128  141.2063  165.1422 F       1  UNL1       -0.2028
     18 C         139.3716  137.6233  164.7562 C.3     1  UNL1        0.0294
     19 C         138.6355  138.7079  164.0270 C.3     1  UNL1        0.0666
     20 S         138.1469  139.9145  164.7722 S.3     1  UNL1       -0.0756
     21 C         139.3509  139.8784  167.8051 C.3     1  UNL1        0.1340
     22 N         139.6840  140.8765  166.7361 N.ar    1  UNL1       -0.2872
     23 C         139.1306  140.8931  165.3421 C.ar    1  UNL1        0.1933
     24 N         139.7336  142.0601  164.6178 N.ar    1  UNL1       -0.1221
     25 N         140.6597  142.7648  165.5643 N.ar    1  UNL1       -0.1266
     26 C         140.6291  142.0333  166.8735 C.ar    1  UNL1        0.1862
     27 C         141.4069  142.3950  168.1040 C.ar    1  UNL1        0.1362
     28 C         140.7445  143.1577  169.2129 C.ar    1  UNL1        0.1211
     29 N         141.5223  143.5194  170.4434 N.ar    1  UNL1       -0.2390
     30 C         142.9627  143.1185  170.5649 C.ar    1  UNL1        0.1195
     31 C         143.6251  142.3558  169.4561 C.ar    1  UNL1        0.1196
     32 N         142.8472  141.9941  168.2256 N.ar    1  UNL1       -0.2375
@<TRIPOS>BOND
     1    21    22    1
     2    22    23   ar
     3    23    20    1
     4    20    19    1
     5    19    18    1
     6    18     1    1
     7     1     2    1
     8     2     3    1
     9     3     4    1
    10     4     5    1
    11     5     6    1
    12     6     7    1
    13     7    10    1
    14    10    11   ar
    15    11    12    1
    16    11    13   ar
    17    13    14   ar
    18    14    15   ar
    19    15    16   ar
    20    16    17    1
    21     7     8    1
    22     8     9    1
    23    23    24   ar
    24    24    25   ar
    25    25    26   ar
    26    26    27    1
    27    27    28   ar
    28    28    29   ar
    29    29    30   ar
    30    30    31   ar
    31    31    32   ar
    32    26    22   ar
    33    32    27   ar
    34     9     2    1
    35     8     4    1
    36    16    10   ar
@<TRIPOS>MOLECULE
*****
 32 36 0 0 0
SMALL
GASTEIGER

@<TRIPOS>ATOM
      1 C         142.7557  144.2339  163.1789 C.3     1  UNL1        0.0731
      2 N         142.7643  143.0082  164.0434 N.3     1  UNL1       -0.2712
      3 C         143.2259  141.6418  163.6313 C.3     1  UNL1        0.0738
      4 C         143.0596  140.7228  164.8051 C.3     1  UNL1        0.0372
      5 C         143.2422  139.3103  165.2759 C.3     1  UNL1        0.0245
      6 C         142.7906  139.2357  166.7044 C.3     1  UNL1        0.0910
      7 N         142.3289  140.6022  167.1164 N.pl3   1  UNL1       -0.3042
      8 C         142.4952  141.5212  165.9427 C.3     1  UNL1        0.0902
      9 C         142.3127  142.9337  165.4719 C.3     1  UNL1        0.0921
     10 C         141.7948  140.9828  168.4655 C.ar    1  UNL1        0.1034
     11 C         140.4685  140.4528  168.9238 C.ar    1  UNL1        0.1555
     12 F         139.6763  139.5422  168.0331 F       1  UNL1       -0.2028
     13 C         139.9344  140.8334  170.2728 C.ar    1  UNL1        0.0311
     14 C         140.7265  141.7439  171.1635 C.ar    1  UNL1        0.0047
     15 C         142.0529  142.2739  170.7052 C.ar    1  UNL1        0.0311
     16 C         142.5870  141.8933  169.3562 C.ar    1  UNL1        0.1555
     17 F         143.9133  142.4233  168.8979 F       1  UNL1       -0.2028
     18 C         141.7551  145.3226  163.4311 C.3     1  UNL1        0.0294
     19 C         140.8240  145.7538  162.3369 C.3     1  UNL1        0.0666
     20 S         139.3839  145.3355  162.3694 S.3     1  UNL1       -0.0756
     21 C         140.1696  142.2851  161.5165 C.3     1  UNL1        0.1340
     22 N         139.3434  142.6837  162.7032 N.ar    1  UNL1       -0.2872
     23 C         138.9822  144.0858  163.0953 C.ar    1  UNL1        0.1933
     24 N         138.1488  144.0189  164.3406 N.ar    1  UNL1       -0.1221
     25 N         137.9948  142.5754  164.7183 N.ar    1  UNL1       -0.1266
     26 C         138.7331  141.7501  163.7063 C.ar    1  UNL1        0.1862
     27 C         138.8420  140.2541  163.6988 C.ar    1  UNL1        0.1362
     28 C         138.2221  139.4626  162.5856 C.ar    1  UNL1        0.1211
     29 N         138.3311  137.9665  162.5781 N.ar    1  UNL1       -0.2390
     30 C         139.0599  137.2621  163.6839 C.ar    1  UNL1        0.1195
     31 C         139.6798  138.0536  164.7970 C.ar    1  UNL1        0.1196
     32 N         139.5709  139.5497  164.8045 N.ar    1  UNL1       -0.2375
@<TRIPOS>BOND
     1    21    22    1
     2    22    23   ar
     3    23    20    1
     4    20    19    1
     5    19    18    1
     6    18     1    1
     7     1     2    1
     8     2     3    1
     9     3     4    1
    10     4     5    1
    11     5     6    1
    12     6     7    1
    13     7    10    1
    14    10    11   ar
    15    11    12    1
    16    11    13   ar
    17    13    14   ar
    18    14    15   ar
    19    15    16   ar
    20    16    17    1
    21     7     8    1
    22     8     9    1
    23    23    24   ar
    24    24    25   ar
    25    25    26   ar
    26    26    27    1
    27    27    28   ar
    28    28    29   ar
    29    29    30   ar
    30    30    31   ar
    31    31    32   ar
    32    26    22   ar
    33    32    27   ar
    34     9     2    1
    35     8     4    1
    36    16    10   ar
@<TRIPOS>MOLECULE
*****
 32 36 0 0 0
SMALL
GASTEIGER

@<TRIPOS>ATOM
      1 C         141.8913  137.6593  162.8489 C.3     1  UNL1        0.0731
      2 N         142.5516  139.0061  162.8309 N.3     1  UNL1       -0.2712
      3 C         143.9704  139.2977  163.2208 C.3     1  UNL1        0.0738
      4 C         144.2046  140.7695  163.0507 C.3     1  UNL1        0.0372
      5 C         145.2262  141.8594  163.1865 C.3     1  UNL1        0.0245
      6 C         144.5836  143.1510  162.7755 C.3     1  UNL1        0.0910
      7 N         143.1648  142.8593  162.3856 N.pl3   1  UNL1       -0.3042
      8 C         142.9306  141.3875  162.5557 C.3     1  UNL1        0.0902
      9 C         141.9090  140.2976  162.4199 C.3     1  UNL1        0.0921
     10 C         142.1571  143.8632  161.9093 C.ar    1  UNL1        0.1034
     11 C         141.9151  144.0438  160.4401 C.ar    1  UNL1        0.1555
     12 F         142.6807  143.2204  159.4470 F       1  UNL1       -0.2028
     13 C         140.9074  145.0477  159.9638 C.ar    1  UNL1        0.0311
     14 C         140.1418  145.8710  160.9567 C.ar    1  UNL1        0.0047
     15 C         140.3839  145.6904  162.4260 C.ar    1  UNL1        0.0311
     16 C         141.3915  144.6865  162.9024 C.ar    1  UNL1        0.1555
     17 F         141.6336  144.5060  164.3716 F       1  UNL1       -0.2028
     18 C         140.8901  137.3291  163.9158 C.3     1  UNL1        0.0294
     19 C         139.4307  137.5832  163.6795 C.3     1  UNL1        0.0666
     20 S         138.7918  138.8331  164.2079 S.3     1  UNL1       -0.0756
     21 C         140.9713  140.5926  165.8824 C.3     1  UNL1        0.1340
     22 N         139.7675  139.9042  166.4543 N.ar    1  UNL1       -0.2872
     23 C         138.7657  139.0954  165.6846 C.ar    1  UNL1        0.1933
     24 N         137.7333  138.5950  166.6508 N.ar    1  UNL1       -0.1221
     25 N         138.0969  139.0945  168.0177 N.ar    1  UNL1       -0.1266
     26 C         139.3542  139.9036  167.8963 C.ar    1  UNL1        0.1862
     27 C         140.0720  140.5913  169.0195 C.ar    1  UNL1        0.1362
     28 C         139.8708  140.1296  170.4324 C.ar    1  UNL1        0.1211
     29 N         140.5886  140.8173  171.5557 N.ar    1  UNL1       -0.2390
     30 C         141.5077  141.9669  171.2660 C.ar    1  UNL1        0.1195
     31 C         141.7089  142.4287  169.8531 C.ar    1  UNL1        0.1196
     32 N         140.9910  141.7408  168.7298 N.ar    1  UNL1       -0.2375
@<TRIPOS>BOND
     1    21    22    1
     2    22    23   ar
     3    23    20    1
     4    20    19    1
     5    19    18    1
     6    18     1    1
     7     1     2    1
     8     2     3    1
     9     3     4    1
    10     4     5    1
    11     5     6    1
    12     6     7    1
    13     7    10    1
    14    10    11   ar
    15    11    12    1
    16    11    13   ar
    17    13    14   ar
    18    14    15   ar
    19    15    16   ar
    20    16    17    1
    21     7     8    1
    22     8     9    1
    23    23    24   ar
    24    24    25   ar
    25    25    26   ar
    26    26    27    1
    27    27    28   ar
    28    28    29   ar
    29    29    30   ar
    30    30    31   ar
    31    31    32   ar
    32    26    22   ar
    33    32    27   ar
    34     9     2    1
    35     8     4    1
    36    16    10   ar
@<TRIPOS>MOLECULE
*****
 32 36 0 0 0
SMALL
GASTEIGER

@<TRIPOS>ATOM
      1 C         141.0294  137.1072  163.2965 C.3     1  UNL1        0.0731
      2 N         141.7933  138.2101  162.6257 N.3     1  UNL1       -0.2712
      3 C         142.3041  138.1977  161.2154 C.3     1  UNL1        0.0738
      4 C         143.0070  139.4990  160.9656 C.3     1  UNL1        0.0372
      5 C         143.7572  140.2956  159.9396 C.3     1  UNL1        0.0245
      6 C         144.1445  141.6046  160.5613 C.3     1  UNL1        0.0910
      7 N         143.6336  141.6170  161.9717 N.pl3   1  UNL1       -0.3042
      8 C         142.9307  140.3157  162.2215 C.3     1  UNL1        0.0902
      9 C         142.1806  139.5191  163.2475 C.3     1  UNL1        0.0921
     10 C         143.7971  142.7345  162.9588 C.ar    1  UNL1        0.1034
     11 C         143.2491  144.0958  162.6482 C.ar    1  UNL1        0.1555
     12 F         142.5375  144.3396  161.3503 F       1  UNL1       -0.2028
     13 C         143.4125  145.2133  163.6353 C.ar    1  UNL1        0.0311
     14 C         144.1240  144.9695  164.9331 C.ar    1  UNL1        0.0047
     15 C         144.6721  143.6082  165.2438 C.ar    1  UNL1        0.0311
     16 C         144.5086  142.4907  164.2567 C.ar    1  UNL1        0.1555
     17 F         145.0567  141.1294  164.5673 F       1  UNL1       -0.2028
     18 C         139.7469  137.4110  164.0127 C.3     1  UNL1        0.0294
     19 C         138.7712  138.3859  163.4229 C.3     1  UNL1        0.0666
     20 S         138.2472  139.5187  164.2547 S.3     1  UNL1       -0.0756
     21 C         140.5023  141.1744  165.9349 C.3     1  UNL1        0.1340
     22 N         139.4631  140.2622  166.5162 N.ar    1  UNL1       -0.2872
     23 C         138.4266  139.5011  165.7439 C.ar    1  UNL1        0.1933
     24 N         137.6008  138.7194  166.7221 N.ar    1  UNL1       -0.1221
     25 N         138.1270  138.9973  168.0991 N.ar    1  UNL1       -0.1266
     26 C         139.2779  139.9508  167.9718 C.ar    1  UNL1        0.1862
     27 C         140.0995  140.4970  169.1018 C.ar    1  UNL1        0.1362
     28 C         141.3626  139.8015  169.5152 C.ar    1  UNL1        0.1211
     29 N         142.1841  140.3477  170.6452 N.ar    1  UNL1       -0.2390
     30 C         141.7424  141.5894  171.3616 C.ar    1  UNL1        0.1195
     31 C         140.4793  142.2848  170.9482 C.ar    1  UNL1        0.1196
     32 N         139.6578  141.7386  169.8182 N.ar    1  UNL1       -0.2375
@<TRIPOS>BOND
     1    21    22    1
     2    22    23   ar
     3    23    20    1
     4    20    19    1
     5    19    18    1
     6    18     1    1
     7     1     2    1
     8     2     3    1
     9     3     4    1
    10     4     5    1
    11     5     6    1
    12     6     7    1
    13     7    10    1
    14    10    11   ar
    15    11    12    1
    16    11    13   ar
    17    13    14   ar
    18    14    15   ar
    19    15    16   ar
    20    16    17    1
    21     7     8    1
    22     8     9    1
    23    23    24   ar
    24    24    25   ar
    25    25    26   ar
    26    26    27    1
    27    27    28   ar
    28    28    29   ar
    29    29    30   ar
    30    30    31   ar
    31    31    32   ar
    32    26    22   ar
    33    32    27   ar
    34     9     2    1
    35     8     4    1
    36    16    10   ar
@<TRIPOS>MOLECULE
*****
 32 36 0 0 0
SMALL
GASTEIGER

@<TRIPOS>ATOM
      1 C         144.1231  139.1543  161.5047 C.3     1  UNL1        0.0731
      2 N         143.8636  140.4168  162.2721 N.3     1  UNL1       -0.2712
      3 C         144.8884  141.2269  163.0093 C.3     1  UNL1        0.0738
      4 C         144.1918  142.4015  163.6298 C.3     1  UNL1        0.0372
      5 C         144.3947  143.6282  164.4689 C.3     1  UNL1        0.0245
      6 C         143.0648  144.3022  164.6339 C.3     1  UNL1        0.0910
      7 N         142.0400  143.4919  163.8967 N.pl3   1  UNL1       -0.3042
      8 C         142.7366  142.3173  163.2762 C.3     1  UNL1        0.0902
      9 C         142.5337  141.0907  162.4370 C.3     1  UNL1        0.0921
     10 C         140.5757  143.8020  163.7975 C.ar    1  UNL1        0.1034
     11 C         139.7071  143.7185  165.0175 C.ar    1  UNL1        0.1555
     12 F         140.3027  143.3251  166.3368 F       1  UNL1       -0.2028
     13 C         138.2428  144.0286  164.9183 C.ar    1  UNL1        0.0311
     14 C         137.6472  144.4220  163.5990 C.ar    1  UNL1        0.0047
     15 C         138.5159  144.5055  162.3789 C.ar    1  UNL1        0.0311
     16 C         139.9801  144.1954  162.4782 C.ar    1  UNL1        0.1555
     17 F         140.8488  144.2789  161.2582 F       1  UNL1       -0.2028
     18 C         143.3674  137.9031  161.8415 C.3     1  UNL1        0.0294
     19 C         141.9100  137.9775  162.1884 C.3     1  UNL1        0.0666
     20 S         141.4211  137.4278  163.4955 S.3     1  UNL1       -0.0756
     21 C         143.7145  138.6544  165.4667 C.3     1  UNL1        0.1340
     22 N         142.2400  138.9130  165.5616 N.ar    1  UNL1       -0.2872
     23 C         141.1858  138.3492  164.6556 C.ar    1  UNL1        0.1933
     24 N         139.8551  138.8685  165.1132 N.ar    1  UNL1       -0.1221
     25 N         140.0868  139.7533  166.3021 N.ar    1  UNL1       -0.1266
     26 C         141.5608  139.7809  166.5793 C.ar    1  UNL1        0.1862
     27 C         142.2367  140.5425  167.6806 C.ar    1  UNL1        0.1362
     28 C         142.9121  141.8486  167.3844 C.ar    1  UNL1        0.1211
     29 N         143.5881  142.6102  168.4857 N.ar    1  UNL1       -0.2390
     30 C         143.5886  142.0656  169.8834 C.ar    1  UNL1        0.1195
     31 C         142.9132  140.7594  170.1797 C.ar    1  UNL1        0.1196
     32 N         142.2373  139.9978  169.0782 N.ar    1  UNL1       -0.2375
@<TRIPOS>BOND
     1    21    22    1
     2    22    23   ar
     3    23    20    1
     4    20    19    1
     5    19    18    1
     6    18     1    1
     7     1     2    1
     8     2     3    1
     9     3     4    1
    10     4     5    1
    11     5     6    1
    12     6     7    1
    13     7    10    1
    14    10    11   ar
    15    11    12    1
    16    11    13   ar
    17    13    14   ar
    18    14    15   ar
    19    15    16   ar
    20    16    17    1
    21     7     8    1
    22     8     9    1
    23    23    24   ar
    24    24    25   ar
    25    25    26   ar
    26    26    27    1
    27    27    28   ar
    28    28    29   ar
    29    29    30   ar
    30    30    31   ar
    31    31    32   ar
    32    26    22   ar
    33    32    27   ar
    34     9     2    1
    35     8     4    1
    36    16    10   ar
@<TRIPOS>MOLECULE
*****
 32 36 0 0 0
SMALL
GASTEIGER

@<TRIPOS>ATOM
      1 C         138.8326  138.6342  160.8555 C.3     1  UNL1        0.0731
      2 N         139.2256  140.0371  160.4986 N.3     1  UNL1       -0.2712
      3 C         138.7776  140.7966  159.2852 C.3     1  UNL1        0.0738
      4 C         139.4108  142.1557  159.3292 C.3     1  UNL1        0.0372
      5 C         139.5253  143.4651  158.6064 C.3     1  UNL1        0.0245
      6 C         140.4355  144.3548  159.4002 C.3     1  UNL1        0.0910
      7 N         140.8835  143.5951  160.6136 N.pl3   1  UNL1       -0.3042
      8 C         140.2503  142.2361  160.5697 C.3     1  UNL1        0.0902
      9 C         140.1358  140.9267  161.2925 C.3     1  UNL1        0.0921
     10 C         141.8034  144.1051  161.6832 C.ar    1  UNL1        0.1034
     11 C         143.2511  143.7129  161.6769 C.ar    1  UNL1        0.1555
     12 F         143.7792  142.8108  160.6010 F       1  UNL1       -0.2028
     13 C         144.1710  144.2229  162.7464 C.ar    1  UNL1        0.0311
     14 C         143.6430  145.1250  163.8222 C.ar    1  UNL1        0.0047
     15 C         142.1951  145.5172  163.8285 C.ar    1  UNL1        0.0311
     16 C         141.2753  145.0072  162.7590 C.ar    1  UNL1        0.1555
     17 F         139.8275  145.3993  162.7653 F       1  UNL1       -0.2028
     18 C         139.4936  137.9407  162.0097 C.3     1  UNL1        0.0294
     19 C         138.8247  137.9150  163.3521 C.3     1  UNL1        0.0666
     20 S         138.5365  139.1995  164.0711 S.3     1  UNL1       -0.0756
     21 C         140.8389  140.6795  165.8482 C.3     1  UNL1        0.1340
     22 N         139.6556  139.9307  166.3858 N.ar    1  UNL1       -0.2872
     23 C         138.5973  139.2504  165.5690 C.ar    1  UNL1        0.1933
     24 N         137.6105  138.6299  166.5131 N.ar    1  UNL1       -0.1221
     25 N         138.0589  138.9268  167.9134 N.ar    1  UNL1       -0.1266
     26 C         139.3229  139.7307  167.8348 C.ar    1  UNL1        0.1862
     27 C         140.1150  140.2444  169.0004 C.ar    1  UNL1        0.1362
     28 C         139.4956  141.2203  169.9564 C.ar    1  UNL1        0.1211
     29 N         140.2877  141.7340  171.1221 N.ar    1  UNL1       -0.2390
     30 C         141.6992  141.2717  171.3316 C.ar    1  UNL1        0.1195
     31 C         142.3186  140.2957  170.3757 C.ar    1  UNL1        0.1196
     32 N         141.5264  139.7821  169.2100 N.ar    1  UNL1       -0.2375
@<TRIPOS>BOND
     1    21    22    1
     2    22    23   ar
     3    23    20    1
     4    20    19    1
     5    19    18    1
     6    18     1    1
     7     1     2    1
     8     2     3    1
     9     3     4    1
    10     4     5    1
    11     5     6    1
    12     6     7    1
    13     7    10    1
    14    10    11   ar
    15    11    12    1
    16    11    13   ar
    17    13    14   ar
    18    14    15   ar
    19    15    16   ar
    20    16    17    1
    21     7     8    1
    22     8     9    1
    23    23    24   ar
    24    24    25   ar
    25    25    26   ar
    26    26    27    1
    27    27    28   ar
    28    28    29   ar
    29    29    30   ar
    30    30    31   ar
    31    31    32   ar
    32    26    22   ar
    33    32    27   ar
    34     9     2    1
    35     8     4    1
    36    16    10   ar
