@<TRIPOS>MOLECULE
*****
 33 37 0 0 0
SMALL
GASTEIGER

@<TRIPOS>ATOM
      1 N         138.4718  138.9176  165.2758 N.am    1  UNL1       -0.2484
      2 C         139.5391  139.2834  164.2872 C.2     1  UNL1        0.3249
      3 O         140.7599  140.0266  164.7424 O.2     1  UNL1       -0.2488
      4 N         139.3855  138.9060  162.8436 N.ar    1  UNL1       -0.2593
      5 C         138.2264  138.1662  162.2443 C.ar    1  UNL1        0.0858
      6 C         138.4886  138.0051  160.7762 C.ar    1  UNL1        0.0397
      7 C         139.8097  138.6454  160.4682 C.ar    1  UNL1        0.0992
      8 N         140.5795  138.7933  159.1894 N.ar    1  UNL1       -0.2391
      9 C         141.9036  139.4981  159.1883 C.ar    1  UNL1        0.1363
     10 C         142.4579  140.0549  160.4661 C.ar    1  UNL1        0.1677
     11 C         141.6881  139.9069  161.7449 C.ar    1  UNL1        0.0583
     12 C         140.3640  139.2022  161.7460 C.ar    1  UNL1        0.0888
     13 H         137.6705  138.4298  164.9771 H       1  UNL1        0.1581
     14 C         139.4376  140.3225  168.7628 C.ar    1  UNL1        0.1549
     15 C         139.6472  140.2395  167.2798 C.ar    1  UNL1        0.0734
     16 C         138.6254  139.2951  166.7194 C.ar    1  UNL1        0.1773
     17 N         137.7843  138.7944  167.8559 N.ar    1  UNL1       -0.0620
     18 O         138.2862  139.4293  169.1188 O.2     1  UNL1       -0.3565
     19 C         140.3543  142.2340  168.6882 C.3     1  UNL1        0.0076
     20 C         140.2386  141.1528  169.7214 C.3     1  UNL1        0.0539
     21 C         140.1228  140.0715  170.7546 C.3     1  UNL1        0.0076
     22 C         141.0396  141.9830  170.6800 C.3     1  UNL1        0.0076
     23 O         143.7821  140.7596  160.4649 O.3     1  UNL1       -0.4347
     24 C         144.2595  141.4609  161.7019 C.ar    1  UNL1        0.2295
     25 N         145.2266  140.7798  162.6243 N.ar    1  UNL1       -0.1893
     26 C         145.7040  141.4812  163.8613 C.ar    1  UNL1        0.2012
     27 N         145.2143  142.8636  164.1760 N.ar    1  UNL1       -0.2270
     28 C         144.2471  143.5447  163.2537 C.ar    1  UNL1        0.0785
     29 C         143.7697  142.8434  162.0167 C.ar    1  UNL1        0.0621
     30 C         142.8222  143.7597  161.3007 C.3     1  UNL1        0.1019
     31 N         142.7140  145.0273  162.0953 N.3     1  UNL1       -0.2886
     32 C         143.5946  144.8945  163.3023 C.3     1  UNL1        0.1153
     33 H         141.7472  145.1719  162.3865 H       1  UNL1        0.1239
@<TRIPOS>BOND
     1    19    20    1
     2    20    21    1
     3    20    22    1
     4    20    14    1
     5    14    15   ar
     6    15    16   ar
     7    16     1    1
     8     1     2   am
     9     2     3    2
    10     2     4   am
    11     4     5   ar
    12     5     6   ar
    13     6     7   ar
    14     7     8   ar
    15     8     9   ar
    16     9    10   ar
    17    10    23    1
    18    23    24    1
    19    24    25   ar
    20    25    26   ar
    21    26    27   ar
    22    27    28   ar
    23    28    29   ar
    24    29    30    1
    25    30    31    1
    26    31    32    1
    27    10    11   ar
    28    11    12   ar
    29    16    17   ar
    30    17    18   ar
    31    18    14   ar
    32    12     4   ar
    33    12     7   ar
    34    29    24   ar
    35    32    28    1
    36     1    13    1
    37    31    33    1
@<TRIPOS>MOLECULE
*****
 33 37 0 0 0
SMALL
GASTEIGER

@<TRIPOS>ATOM
      1 N         143.2935  138.4021  162.4247 N.am    1  UNL1       -0.2484
      2 C         142.6208  139.4661  163.2405 C.2     1  UNL1        0.3249
      3 O         141.8822  140.5792  162.5585 O.2     1  UNL1       -0.2488
      4 N         142.6867  139.4168  164.7383 N.ar    1  UNL1       -0.2593
      5 C         143.3847  138.3708  165.5561 C.ar    1  UNL1        0.0858
      6 C         143.1956  138.7124  167.0044 C.ar    1  UNL1        0.0397
      7 C         142.3807  139.9694  167.0817 C.ar    1  UNL1        0.0992
      8 N         141.8844  140.7738  168.2464 N.ar    1  UNL1       -0.2391
      9 C         141.0737  142.0136  168.0105 C.ar    1  UNL1        0.1363
     10 C         140.7592  142.4489  166.6100 C.ar    1  UNL1        0.1677
     11 C         141.2554  141.6445  165.4452 C.ar    1  UNL1        0.0583
     12 C         142.0662  140.4047  165.6811 C.ar    1  UNL1        0.0888
     13 H         143.7784  137.6714  162.8723 H       1  UNL1        0.1581
     14 C         142.5108  138.0987  158.6352 C.ar    1  UNL1        0.1549
     15 C         142.1932  137.7870  160.0677 C.ar    1  UNL1        0.0734
     16 C         143.2276  138.4514  160.9270 C.ar    1  UNL1        0.1773
     17 N         144.1845  139.1739  160.0257 N.ar    1  UNL1       -0.0620
     18 O         143.7415  138.9559  158.6093 O.2     1  UNL1       -0.3565
     19 C         140.5583  138.4523  157.8851 C.3     1  UNL1        0.0076
     20 C         141.7340  137.6348  157.4388 C.3     1  UNL1        0.0539
     21 C         142.9099  136.8173  156.9925 C.3     1  UNL1        0.0076
     22 C         140.9574  137.1709  156.2423 C.3     1  UNL1        0.0076
     23 O         139.9484  143.6887  166.3741 O.3     1  UNL1       -0.4347
     24 C         139.4076  143.9823  165.0062 C.ar    1  UNL1        0.2295
     25 N         137.9693  143.6961  164.6910 N.ar    1  UNL1       -0.1893
     26 C         137.4285  143.9897  163.3230 C.ar    1  UNL1        0.2012
     27 N         138.3260  144.5694  162.2702 N.ar    1  UNL1       -0.2270
     28 C         139.7643  144.8556  162.5854 C.ar    1  UNL1        0.0785
     29 C         140.3051  144.5620  163.9534 C.ar    1  UNL1        0.0621
     30 C         141.7548  144.9467  163.9711 C.3     1  UNL1        0.1019
     31 N         142.1100  145.4781  162.6141 N.3     1  UNL1       -0.2886
     32 C         140.8798  145.4217  161.7577 C.3     1  UNL1        0.1153
     33 H         142.8463  144.9063  162.2003 H       1  UNL1        0.1239
@<TRIPOS>BOND
     1    19    20    1
     2    20    21    1
     3    20    22    1
     4    20    14    1
     5    14    15   ar
     6    15    16   ar
     7    16     1    1
     8     1     2   am
     9     2     3    2
    10     2     4   am
    11     4     5   ar
    12     5     6   ar
    13     6     7   ar
    14     7     8   ar
    15     8     9   ar
    16     9    10   ar
    17    10    23    1
    18    23    24    1
    19    24    25   ar
    20    25    26   ar
    21    26    27   ar
    22    27    28   ar
    23    28    29   ar
    24    29    30    1
    25    30    31    1
    26    31    32    1
    27    10    11   ar
    28    11    12   ar
    29    16    17   ar
    30    17    18   ar
    31    18    14   ar
    32    12     4   ar
    33    12     7   ar
    34    29    24   ar
    35    32    28    1
    36     1    13    1
    37    31    33    1
@<TRIPOS>MOLECULE
*****
 33 37 0 0 0
SMALL
GASTEIGER

@<TRIPOS>ATOM
      1 N         143.2343  138.9690  165.0360 N.am    1  UNL1       -0.2484
      2 C         142.4002  139.5542  163.9351 C.2     1  UNL1        0.3249
      3 O         141.3996  140.6285  164.2425 O.2     1  UNL1       -0.2488
      4 N         142.5669  139.0651  162.5269 N.ar    1  UNL1       -0.2593
      5 C         143.5218  138.0024  162.0699 C.ar    1  UNL1        0.0858
      6 C         143.3529  137.8333  160.5891 C.ar    1  UNL1        0.0397
      7 C         142.2936  138.7914  160.1309 C.ar    1  UNL1        0.0992
      8 N         141.7086  139.0690  158.7779 N.ar    1  UNL1       -0.2391
      9 C         140.6379  140.1079  158.6225 C.ar    1  UNL1        0.1363
     10 C         140.1521  140.8692  159.8202 C.ar    1  UNL1        0.1677
     11 C         140.7370  140.5916  161.1732 C.ar    1  UNL1        0.0583
     12 C         141.8078  139.5527  161.3286 C.ar    1  UNL1        0.0888
     13 H         143.8911  138.2639  164.8343 H       1  UNL1        0.1581
     14 C         142.6129  140.8866  168.3529 C.ar    1  UNL1        0.1549
     15 C         142.6488  140.8389  166.8541 C.ar    1  UNL1        0.0734
     16 C         143.0677  139.4582  166.4442 C.ar    1  UNL1        0.1773
     17 N         143.2907  138.6525  167.6896 N.ar    1  UNL1       -0.0620
     18 O         143.0096  139.5353  168.8693 O.2     1  UNL1       -0.3565
     19 C         143.6325  142.1063  169.7574 C.3     1  UNL1        0.0076
     20 C         142.2449  142.0766  169.1887 C.3     1  UNL1        0.0539
     21 C         140.8572  142.0469  168.6198 C.3     1  UNL1        0.0076
     22 C         141.8768  143.2666  170.0243 C.3     1  UNL1        0.0076
     23 O         139.0812  141.9081  159.6648 O.3     1  UNL1       -0.4347
     24 C         139.0911  143.1310  160.5333 C.ar    1  UNL1        0.2295
     25 N         139.7593  144.3856  160.0545 N.ar    1  UNL1       -0.1893
     26 C         139.7691  145.6086  160.9231 C.ar    1  UNL1        0.2012
     27 N         139.1106  145.5768  162.2705 N.ar    1  UNL1       -0.2270
     28 C         138.4424  144.3222  162.7493 C.ar    1  UNL1        0.0785
     29 C         138.4326  143.0993  161.8808 C.ar    1  UNL1        0.0621
     30 C         137.7010  142.0150  162.6150 C.3     1  UNL1        0.1019
     31 N         137.2587  142.5678  163.9375 N.3     1  UNL1       -0.2886
     32 C         137.7169  143.9937  164.0204 C.3     1  UNL1        0.1153
     33 H         137.6740  142.0262  164.6954 H       1  UNL1        0.1239
@<TRIPOS>BOND
     1    19    20    1
     2    20    21    1
     3    20    22    1
     4    20    14    1
     5    14    15   ar
     6    15    16   ar
     7    16     1    1
     8     1     2   am
     9     2     3    2
    10     2     4   am
    11     4     5   ar
    12     5     6   ar
    13     6     7   ar
    14     7     8   ar
    15     8     9   ar
    16     9    10   ar
    17    10    23    1
    18    23    24    1
    19    24    25   ar
    20    25    26   ar
    21    26    27   ar
    22    27    28   ar
    23    28    29   ar
    24    29    30    1
    25    30    31    1
    26    31    32    1
    27    10    11   ar
    28    11    12   ar
    29    16    17   ar
    30    17    18   ar
    31    18    14   ar
    32    12     4   ar
    33    12     7   ar
    34    29    24   ar
    35    32    28    1
    36     1    13    1
    37    31    33    1
@<TRIPOS>MOLECULE
*****
 33 37 0 0 0
SMALL
GASTEIGER

@<TRIPOS>ATOM
      1 N         139.5302  142.9186  164.7224 N.am    1  UNL1       -0.2484
      2 C         140.3718  142.7621  163.4906 C.2     1  UNL1        0.3249
      3 O         141.1850  141.5176  163.2912 O.2     1  UNL1       -0.2488
      4 N         140.4001  143.8500  162.4583 N.ar    1  UNL1       -0.2593
      5 C         139.6438  145.1439  162.5201 C.ar    1  UNL1        0.0858
      6 C         139.9661  145.9286  161.2830 C.ar    1  UNL1        0.0397
      7 C         140.9215  145.1197  160.4567 C.ar    1  UNL1        0.0992
      8 N         141.5818  145.3869  159.1367 N.ar    1  UNL1       -0.2391
      9 C         142.5105  144.3694  158.5431 C.ar    1  UNL1        0.1363
     10 C         142.7787  143.0848  159.2695 C.ar    1  UNL1        0.1677
     11 C         142.1184  142.8176  160.5895 C.ar    1  UNL1        0.0583
     12 C         141.1898  143.8350  161.1831 C.ar    1  UNL1        0.0888
     13 H         138.9964  143.7355  164.8534 H       1  UNL1        0.1581
     14 C         139.9325  140.5500  167.7709 C.ar    1  UNL1        0.1549
     15 C         140.2524  141.8278  167.0534 C.ar    1  UNL1        0.0734
     16 C         139.5018  141.8307  165.7547 C.ar    1  UNL1        0.1773
     17 N         138.7180  140.5547  165.6695 N.ar    1  UNL1       -0.0620
     18 O         138.9841  139.7632  166.9156 O.2     1  UNL1       -0.3565
     19 C         141.8017  139.8475  168.4865 C.3     1  UNL1        0.0076
     20 C         140.4669  140.1323  169.1087 C.3     1  UNL1        0.0539
     21 C         139.1320  140.4172  169.7309 C.3     1  UNL1        0.0076
     22 C         141.0013  139.7147  170.4466 C.3     1  UNL1        0.0076
     23 O         143.7074  142.0673  158.6758 O.3     1  UNL1       -0.4347
     24 C         143.3744  140.6073  158.7620 C.ar    1  UNL1        0.2295
     25 N         142.7060  139.9211  157.6077 N.ar    1  UNL1       -0.1893
     26 C         142.3729  138.4610  157.6940 C.ar    1  UNL1        0.2012
     27 N         142.7083  137.6873  158.9344 N.ar    1  UNL1       -0.2270
     28 C         143.3768  138.3735  160.0887 C.ar    1  UNL1        0.0785
     29 C         143.7098  139.8335  160.0025 C.ar    1  UNL1        0.0621
     30 C         144.3639  140.2366  161.2907 C.3     1  UNL1        0.1019
     31 N         144.4351  139.0257  162.1731 N.3     1  UNL1       -0.2886
     32 C         143.8251  137.8742  161.4302 C.3     1  UNL1        0.1153
     33 H         143.9171  139.1948  163.0354 H       1  UNL1        0.1239
@<TRIPOS>BOND
     1    19    20    1
     2    20    21    1
     3    20    22    1
     4    20    14    1
     5    14    15   ar
     6    15    16   ar
     7    16     1    1
     8     1     2   am
     9     2     3    2
    10     2     4   am
    11     4     5   ar
    12     5     6   ar
    13     6     7   ar
    14     7     8   ar
    15     8     9   ar
    16     9    10   ar
    17    10    23    1
    18    23    24    1
    19    24    25   ar
    20    25    26   ar
    21    26    27   ar
    22    27    28   ar
    23    28    29   ar
    24    29    30    1
    25    30    31    1
    26    31    32    1
    27    10    11   ar
    28    11    12   ar
    29    16    17   ar
    30    17    18   ar
    31    18    14   ar
    32    12     4   ar
    33    12     7   ar
    34    29    24   ar
    35    32    28    1
    36     1    13    1
    37    31    33    1
@<TRIPOS>MOLECULE
*****
 33 37 0 0 0
SMALL
GASTEIGER

@<TRIPOS>ATOM
      1 N         139.8527  145.2810  160.1717 N.am    1  UNL1       -0.2484
      2 C         139.8528  143.9031  160.7648 C.2     1  UNL1        0.3249
      3 O         140.5912  142.7918  160.0795 O.2     1  UNL1       -0.2488
      4 N         139.1145  143.6368  162.0430 N.ar    1  UNL1       -0.2593
      5 C         138.3357  144.6429  162.8374 C.ar    1  UNL1        0.0858
      6 C         137.7653  143.9455  164.0367 C.ar    1  UNL1        0.0397
      7 C         138.1916  142.5083  163.9835 C.ar    1  UNL1        0.0992
      8 N         137.9282  141.3488  164.8978 N.ar    1  UNL1       -0.2391
      9 C         138.4988  139.9984  164.5800 C.ar    1  UNL1        0.1363
     10 C         139.3327  139.8077  163.3478 C.ar    1  UNL1        0.1677
     11 C         139.5960  140.9672  162.4335 C.ar    1  UNL1        0.0583
     12 C         139.0255  142.3175  162.7513 C.ar    1  UNL1        0.0888
     13 H         139.3681  146.0105  160.6214 H       1  UNL1        0.1581
     14 C         141.0769  145.9647  156.5524 C.ar    1  UNL1        0.1549
     15 C         139.9730  145.7161  157.5371 C.ar    1  UNL1        0.0734
     16 C         140.5910  145.5473  158.8934 C.ar    1  UNL1        0.1773
     17 N         142.0769  145.6915  158.7470 N.ar    1  UNL1       -0.0620
     18 O         142.3772  145.9495  157.3002 O.2     1  UNL1       -0.3565
     19 C         139.7615  147.1151  155.3498 C.3     1  UNL1        0.0076
     20 C         140.9100  146.1891  155.0787 C.3     1  UNL1        0.0539
     21 C         142.0585  145.2631  154.8076 C.3     1  UNL1        0.0076
     22 C         140.7431  146.4135  153.6051 C.3     1  UNL1        0.0076
     23 O         139.9032  138.4572  163.0300 O.3     1  UNL1       -0.4347
     24 C         141.3098  138.3377  162.5230 C.ar    1  UNL1        0.2295
     25 N         141.5753  137.7020  161.1905 N.ar    1  UNL1       -0.1893
     26 C         142.9820  137.5825  160.6835 C.ar    1  UNL1        0.2012
     27 N         144.1231  138.0987  161.5089 N.ar    1  UNL1       -0.2270
     28 C         143.8576  138.7345  162.8414 C.ar    1  UNL1        0.0785
     29 C         142.4510  138.8540  163.3484 C.ar    1  UNL1        0.0621
     30 C         142.4971  139.5234  164.6899 C.3     1  UNL1        0.1019
     31 N         143.9323  139.8176  165.0120 N.3     1  UNL1       -0.2886
     32 C         144.7731  139.3301  163.8695 C.3     1  UNL1        0.1153
     33 H         144.2004  139.3352  165.8697 H       1  UNL1        0.1239
@<TRIPOS>BOND
     1    19    20    1
     2    20    21    1
     3    20    22    1
     4    20    14    1
     5    14    15   ar
     6    15    16   ar
     7    16     1    1
     8     1     2   am
     9     2     3    2
    10     2     4   am
    11     4     5   ar
    12     5     6   ar
    13     6     7   ar
    14     7     8   ar
    15     8     9   ar
    16     9    10   ar
    17    10    23    1
    18    23    24    1
    19    24    25   ar
    20    25    26   ar
    21    26    27   ar
    22    27    28   ar
    23    28    29   ar
    24    29    30    1
    25    30    31    1
    26    31    32    1
    27    10    11   ar
    28    11    12   ar
    29    16    17   ar
    30    17    18   ar
    31    18    14   ar
    32    12     4   ar
    33    12     7   ar
    34    29    24   ar
    35    32    28    1
    36     1    13    1
    37    31    33    1
@<TRIPOS>MOLECULE
*****
 33 37 0 0 0
SMALL
GASTEIGER

@<TRIPOS>ATOM
      1 N         143.3176  138.3129  156.8741 N.am    1  UNL1       -0.2484
      2 C         142.4328  139.3340  157.5257 C.2     1  UNL1        0.3249
      3 O         140.9875  139.0222  157.7782 O.2     1  UNL1       -0.2488
      4 N         142.9933  140.6669  157.9248 N.ar    1  UNL1       -0.2593
      5 C         144.4112  141.1190  157.7371 C.ar    1  UNL1        0.0858
      6 C         144.5285  142.5132  158.2780 C.ar    1  UNL1        0.0397
      7 C         143.1832  142.9227  158.7999 C.ar    1  UNL1        0.0992
      8 N         142.6995  144.1872  159.4457 N.ar    1  UNL1       -0.2391
      9 C         141.2671  144.3106  159.8732 C.ar    1  UNL1        0.1363
     10 C         140.3183  143.1695  159.6550 C.ar    1  UNL1        0.1677
     11 C         140.8019  141.9050  159.0092 C.ar    1  UNL1        0.0583
     12 C         142.2343  141.7816  158.5816 C.ar    1  UNL1        0.0888
     13 H         144.2663  138.5176  156.7084 H       1  UNL1        0.1581
     14 C         142.4242  134.5851  156.2656 C.ar    1  UNL1        0.1549
     15 C         143.2846  135.6402  156.8952 C.ar    1  UNL1        0.0734
     16 C         142.7571  136.9800  156.4751 C.ar    1  UNL1        0.1773
     17 N         141.5707  136.7530  155.5858 N.ar    1  UNL1       -0.0620
     18 O         141.3649  135.2729  155.4564 O.2     1  UNL1       -0.3565
     19 C         143.6790  133.3304  157.4281 C.3     1  UNL1        0.0076
     20 C         142.5934  133.1025  156.4184 C.3     1  UNL1        0.0539
     21 C         141.5076  132.8746  155.4087 C.3     1  UNL1        0.0076
     22 C         142.7624  131.6200  156.5712 C.3     1  UNL1        0.0076
     23 O         138.8858  143.2929  160.0826 O.3     1  UNL1       -0.4347
     24 C         138.4658  142.8208  161.4429 C.ar    1  UNL1        0.2295
     25 N         137.7405  141.5164  161.5933 N.ar    1  UNL1       -0.1893
     26 C         137.3205  141.0443  162.9538 C.ar    1  UNL1        0.2012
     27 N         137.6258  141.8766  164.1638 N.ar    1  UNL1       -0.2270
     28 C         138.3510  143.1810  164.0134 C.ar    1  UNL1        0.0785
     29 C         138.7710  143.6531  162.6530 C.ar    1  UNL1        0.0621
     30 C         139.4667  144.9722  162.8144 C.3     1  UNL1        0.1019
     31 N         139.4766  145.3153  164.2746 N.3     1  UNL1       -0.2886
     32 C         138.7871  144.2083  165.0156 C.3     1  UNL1        0.1153
     33 H         138.9821  146.1943  164.4270 H       1  UNL1        0.1239
@<TRIPOS>BOND
     1    19    20    1
     2    20    21    1
     3    20    22    1
     4    20    14    1
     5    14    15   ar
     6    15    16   ar
     7    16     1    1
     8     1     2   am
     9     2     3    2
    10     2     4   am
    11     4     5   ar
    12     5     6   ar
    13     6     7   ar
    14     7     8   ar
    15     8     9   ar
    16     9    10   ar
    17    10    23    1
    18    23    24    1
    19    24    25   ar
    20    25    26   ar
    21    26    27   ar
    22    27    28   ar
    23    28    29   ar
    24    29    30    1
    25    30    31    1
    26    31    32    1
    27    10    11   ar
    28    11    12   ar
    29    16    17   ar
    30    17    18   ar
    31    18    14   ar
    32    12     4   ar
    33    12     7   ar
    34    29    24   ar
    35    32    28    1
    36     1    13    1
    37    31    33    1
@<TRIPOS>MOLECULE
*****
 33 37 0 0 0
SMALL
GASTEIGER

@<TRIPOS>ATOM
      1 N         142.7039  138.6555  165.0458 N.am    1  UNL1       -0.2484
      2 C         142.8685  139.6345  163.9212 C.2     1  UNL1        0.3249
      3 O         142.8225  141.1081  164.1970 O.2     1  UNL1       -0.2488
      4 N         143.0791  139.1396  162.5209 N.ar    1  UNL1       -0.2593
      5 C         143.1475  137.7032  162.0944 C.ar    1  UNL1        0.0858
      6 C         143.3690  137.6702  160.6112 C.ar    1  UNL1        0.0397
      7 C         143.4375  139.0863  160.1211 C.ar    1  UNL1        0.0992
      8 N         143.6398  139.6660  158.7526 N.ar    1  UNL1       -0.2391
      9 C         143.6630  141.1540  158.5644 C.ar    1  UNL1        0.1363
     10 C         143.4839  142.0621  159.7447 C.ar    1  UNL1        0.1677
     11 C         143.2815  141.4824  161.1132 C.ar    1  UNL1        0.0583
     12 C         143.2583  139.9944  161.3014 C.ar    1  UNL1        0.0888
     13 H         142.7340  137.6882  164.8649 H       1  UNL1        0.1581
     14 C         141.5888  140.3256  168.3674 C.ar    1  UNL1        0.1549
     15 C         141.4304  140.1107  166.8913 C.ar    1  UNL1        0.0734
     16 C         142.4932  139.1503  166.4461 C.ar    1  UNL1        0.1773
     17 N         143.3084  138.7717  167.6470 N.ar    1  UNL1       -0.0620
     18 O         142.7494  139.4980  168.8344 O.2     1  UNL1       -0.3565
     19 C         141.8528  142.2109  169.3032 C.3     1  UNL1        0.0076
     20 C         140.7362  141.2123  169.2257 C.3     1  UNL1        0.0539
     21 C         139.6196  140.2136  169.1482 C.3     1  UNL1        0.0076
     22 C         139.8836  142.0989  170.0841 C.3     1  UNL1        0.0076
     23 O         143.5071  143.5501  159.5565 O.3     1  UNL1       -0.4347
     24 C         142.2199  144.3132  159.4531 C.ar    1  UNL1        0.2295
     25 N         141.5896  144.5426  158.1114 N.ar    1  UNL1       -0.1893
     26 C         140.3023  145.3057  158.0081 C.ar    1  UNL1        0.2012
     27 N         139.6454  145.8394  159.2464 N.ar    1  UNL1       -0.2270
     28 C         140.2757  145.6101  160.5881 C.ar    1  UNL1        0.0785
     29 C         141.5629  144.8470  160.6915 C.ar    1  UNL1        0.0621
     30 C         141.9460  144.7783  162.1401 C.3     1  UNL1        0.1019
     31 N         140.8956  145.4989  162.9320 N.3     1  UNL1       -0.2886
     32 C         139.8632  146.0130  161.9729 C.3     1  UNL1        0.1153
     33 H         141.3170  146.2783  163.4375 H       1  UNL1        0.1239
@<TRIPOS>BOND
     1    19    20    1
     2    20    21    1
     3    20    22    1
     4    20    14    1
     5    14    15   ar
     6    15    16   ar
     7    16     1    1
     8     1     2   am
     9     2     3    2
    10     2     4   am
    11     4     5   ar
    12     5     6   ar
    13     6     7   ar
    14     7     8   ar
    15     8     9   ar
    16     9    10   ar
    17    10    23    1
    18    23    24    1
    19    24    25   ar
    20    25    26   ar
    21    26    27   ar
    22    27    28   ar
    23    28    29   ar
    24    29    30    1
    25    30    31    1
    26    31    32    1
    27    10    11   ar
    28    11    12   ar
    29    16    17   ar
    30    17    18   ar
    31    18    14   ar
    32    12     4   ar
    33    12     7   ar
    34    29    24   ar
    35    32    28    1
    36     1    13    1
    37    31    33    1
@<TRIPOS>MOLECULE
*****
 33 37 0 0 0
SMALL
GASTEIGER

@<TRIPOS>ATOM
      1 N         143.1007  138.4858  157.9573 N.am    1  UNL1       -0.2484
      2 C         143.1131  138.5542  159.4557 C.2     1  UNL1        0.3249
      3 O         142.6401  137.3825  160.2639 O.2     1  UNL1       -0.2488
      4 N         143.5984  139.7945  160.1459 N.ar    1  UNL1       -0.2593
      5 C         144.0988  141.0388  159.4741 C.ar    1  UNL1        0.0858
      6 C         144.4781  142.0215  160.5421 C.ar    1  UNL1        0.0397
      7 C         144.2122  141.3845  161.8738 C.ar    1  UNL1        0.0992
      8 N         144.3948  141.8799  163.2777 N.ar    1  UNL1       -0.2391
      9 C         144.0338  140.9990  164.4368 C.ar    1  UNL1        0.1363
     10 C         143.4901  139.6226  164.1920 C.ar    1  UNL1        0.1677
     11 C         143.3074  139.1271  162.7880 C.ar    1  UNL1        0.0583
     12 C         143.6684  140.0081  161.6289 C.ar    1  UNL1        0.0888
     13 H         143.4112  139.2548  157.4268 H       1  UNL1        0.1581
     14 C         142.4621  134.9596  156.4660 C.ar    1  UNL1        0.1549
     15 C         143.2903  135.9060  157.2836 C.ar    1  UNL1        0.0734
     16 C         142.6154  137.2455  157.2671 C.ar    1  UNL1        0.1773
     17 N         141.3701  137.1270  156.4394 N.ar    1  UNL1       -0.0620
     18 O         141.2754  135.7143  155.9443 O.2     1  UNL1       -0.3565
     19 C         143.9546  133.6044  157.1261 C.3     1  UNL1        0.0076
     20 C         142.7670  133.5127  156.2144 C.3     1  UNL1        0.0539
     21 C         141.5794  133.4211  155.3026 C.3     1  UNL1        0.0076
     22 C         143.0719  132.0658  155.9626 C.3     1  UNL1        0.0076
     23 O         143.1291  138.7416  165.3512 O.3     1  UNL1       -0.4347
     24 C         142.0330  139.1496  166.2904 C.ar    1  UNL1        0.2295
     25 N         142.3670  139.6054  167.6799 N.ar    1  UNL1       -0.1893
     26 C         141.2709  140.0134  168.6192 C.ar    1  UNL1        0.2012
     27 N         139.8409  139.9656  168.1689 N.ar    1  UNL1       -0.2270
     28 C         139.5069  139.5098  166.7794 C.ar    1  UNL1        0.0785
     29 C         140.6030  139.1018  165.8401 C.ar    1  UNL1        0.0621
     30 C         139.9732  138.6992  164.5397 C.3     1  UNL1        0.1019
     31 N         138.4878  138.8584  164.6752 N.3     1  UNL1       -0.2886
     32 C         138.1997  139.3594  166.0594 C.3     1  UNL1        0.1153
     33 H         138.0286  137.9593  164.5299 H       1  UNL1        0.1239
@<TRIPOS>BOND
     1    19    20    1
     2    20    21    1
     3    20    22    1
     4    20    14    1
     5    14    15   ar
     6    15    16   ar
     7    16     1    1
     8     1     2   am
     9     2     3    2
    10     2     4   am
    11     4     5   ar
    12     5     6   ar
    13     6     7   ar
    14     7     8   ar
    15     8     9   ar
    16     9    10   ar
    17    10    23    1
    18    23    24    1
    19    24    25   ar
    20    25    26   ar
    21    26    27   ar
    22    27    28   ar
    23    28    29   ar
    24    29    30    1
    25    30    31    1
    26    31    32    1
    27    10    11   ar
    28    11    12   ar
    29    16    17   ar
    30    17    18   ar
    31    18    14   ar
    32    12     4   ar
    33    12     7   ar
    34    29    24   ar
    35    32    28    1
    36     1    13    1
    37    31    33    1
@<TRIPOS>MOLECULE
*****
 33 37 0 0 0
SMALL
GASTEIGER

@<TRIPOS>ATOM
      1 N         143.3261  138.4862  156.9861 N.am    1  UNL1       -0.2484
      2 C         143.0591  139.0623  158.3451 C.2     1  UNL1        0.3249
      3 O         142.2178  138.3045  159.3288 O.2     1  UNL1       -0.2488
      4 N         143.6334  140.3963  158.7203 N.ar    1  UNL1       -0.2593
      5 C         144.4887  141.2652  157.8465 C.ar    1  UNL1        0.0858
      6 C         144.8371  142.5014  158.6214 C.ar    1  UNL1        0.0397
      7 C         144.1973  142.3965  159.9740 C.ar    1  UNL1        0.0992
      8 N         144.1959  143.3176  161.1578 N.ar    1  UNL1       -0.2391
      9 C         143.4507  142.9376  162.4029 C.ar    1  UNL1        0.1363
     10 C         142.7067  141.6365  162.4640 C.ar    1  UNL1        0.1677
     11 C         142.7080  140.7154  161.2801 C.ar    1  UNL1        0.0583
     12 C         143.4533  141.0954  160.0351 C.ar    1  UNL1        0.0888
     13 H         143.8782  138.9836  156.3404 H       1  UNL1        0.1581
     14 C         142.4574  134.7576  156.3470 C.ar    1  UNL1        0.1549
     15 C         143.3679  135.8150  156.8974 C.ar    1  UNL1        0.0734
     16 C         142.7517  137.1523  156.6109 C.ar    1  UNL1        0.1773
     17 N         141.4604  136.9214  155.8834 N.ar    1  UNL1       -0.0620
     18 O         141.2785  135.4415  155.7203 O.2     1  UNL1       -0.3565
     19 C         143.7127  133.4818  157.4855 C.3     1  UNL1        0.0076
     20 C         142.6856  133.2765  156.4118 C.3     1  UNL1        0.0539
     21 C         141.6585  133.0713  155.3380 C.3     1  UNL1        0.0076
     22 C         142.9138  131.7955  156.4766 C.3     1  UNL1        0.0076
     23 O         141.9614  141.2565  163.7091 O.3     1  UNL1       -0.4347
     24 C         140.4707  141.4120  163.7678 C.ar    1  UNL1        0.2295
     25 N         139.5826  140.2311  163.5094 N.ar    1  UNL1       -0.1893
     26 C         138.0918  140.3867  163.5681 C.ar    1  UNL1        0.2012
     27 N         137.4891  141.7231  163.8852 N.ar    1  UNL1       -0.2270
     28 C         138.3772  142.9041  164.1436 C.ar    1  UNL1        0.0785
     29 C         139.8679  142.7486  164.0849 C.ar    1  UNL1        0.0621
     30 C         140.4853  144.0827  164.3827 C.3     1  UNL1        0.1019
     31 N         139.3760  145.0629  164.6255 N.3     1  UNL1       -0.2886
     32 C         138.0732  144.3344  164.4777 C.3     1  UNL1        0.1153
     33 H         139.4283  145.8204  163.9444 H       1  UNL1        0.1239
@<TRIPOS>BOND
     1    19    20    1
     2    20    21    1
     3    20    22    1
     4    20    14    1
     5    14    15   ar
     6    15    16   ar
     7    16     1    1
     8     1     2   am
     9     2     3    2
    10     2     4   am
    11     4     5   ar
    12     5     6   ar
    13     6     7   ar
    14     7     8   ar
    15     8     9   ar
    16     9    10   ar
    17    10    23    1
    18    23    24    1
    19    24    25   ar
    20    25    26   ar
    21    26    27   ar
    22    27    28   ar
    23    28    29   ar
    24    29    30    1
    25    30    31    1
    26    31    32    1
    27    10    11   ar
    28    11    12   ar
    29    16    17   ar
    30    17    18   ar
    31    18    14   ar
    32    12     4   ar
    33    12     7   ar
    34    29    24   ar
    35    32    28    1
    36     1    13    1
    37    31    33    1
