@<TRIPOS>MOLECULE
*****
 39 44 0 0 0
SMALL
GASTEIGER

@<TRIPOS>ATOM
      1 C         141.3380  142.3897  168.2046 C.3     1  UNL1        0.0439
      2 C         140.4311  141.7928  167.1695 C.ar    1  UNL1       -0.0199
      3 C         139.6976  140.5173  167.4607 C.ar    1  UNL1       -0.0084
      4 C         138.7908  139.9205  166.4256 C.ar    1  UNL1       -0.0216
      5 C         138.6175  140.5993  165.0992 C.ar    1  UNL1        0.0102
      6 C         139.3510  141.8748  164.8080 C.ar    1  UNL1        0.0473
      7 C         140.2578  142.4716  165.8431 C.ar    1  UNL1        0.0103
      8 N         139.1776  142.5536  163.4816 N.pl3   1  UNL1       -0.3028
      9 C         138.2253  141.9896  162.4693 C.3     1  UNL1        0.1231
     10 C         138.0519  142.6684  161.1430 C.3     1  UNL1        0.1636
     11 O         138.8310  143.9112  160.8290 O.3     1  UNL1       -0.3501
     12 C         139.7834  144.4751  161.8413 C.3     1  UNL1        0.1636
     13 C         139.9567  143.7964  163.1676 C.3     1  UNL1        0.1231
     14 C         138.0573  138.6449  166.7169 C.3     1  UNL1        0.0224
     15 C         137.8049  137.1956  166.4240 C.3     1  UNL1        0.0047
     16 C         137.0391  137.8848  167.5141 C.3     1  UNL1        0.0047
     17 C         140.7584  143.1439  169.3644 C.3     1  UNL1        0.0474
     18 O         141.2261  142.2360  171.7535 O.co2   1  UNL1       -0.5492
     19 C         140.2993  142.4042  170.5860 C.2     1  UNL1        0.0507
     20 O         138.9135  141.8327  170.6400 O.co2   1  UNL1       -0.5492
     21 C         142.8245  142.2323  168.0798 C.3     1  UNL1        0.0768
     22 N         143.4631  142.1910  166.7232 N.3     1  UNL1       -0.2724
     23 C         143.9449  143.3755  165.9390 C.3     1  UNL1        0.0721
     24 C         144.5116  142.8744  164.6437 C.3     1  UNL1        0.0187
     25 C         144.3800  141.3803  164.6273 C.3     1  UNL1        0.0178
     26 C         143.7320  140.9579  165.9125 C.3     1  UNL1        0.0721
     27 C         144.8192  140.4687  163.5201 C.3     1  UNL1        0.0077
     28 C         144.3697  139.0377  163.5039 C.3     1  UNL1        0.0459
     29 C         142.9147  138.7105  163.3421 C.ar    1  UNL1        0.0603
     30 C         142.1996  137.9274  164.4029 C.ar    1  UNL1        0.0145
     31 C         140.7448  137.6001  164.2410 C.ar    1  UNL1       -0.0003
     32 C         140.0049  138.0559  163.0183 C.ar    1  UNL1        0.0092
     33 C         140.7200  138.8391  161.9575 C.ar    1  UNL1        0.1240
     34 N         142.1750  139.1663  162.1194 N.ar    1  UNL1       -0.2356
     35 N         139.9803  139.2949  160.7349 N.pl3   1  UNL1       -0.3184
     36 C         138.5254  138.9676  160.5730 C.3     1  UNL1        0.0885
     37 C         137.8103  138.1845  161.6339 C.3     1  UNL1        0.0260
     38 C         138.5501  137.7287  162.8565 C.3     1  UNL1        0.0309
     39 H         140.4496  139.8089  160.0386 H       1  UNL1        0.1482
@<TRIPOS>UNITY_ATOM_ATTR
18 1
charge -1
@<TRIPOS>BOND
     1    18    19   ar
     2    19    20   ar
     3    19    17    1
     4     1    17    1
     5     1    21    1
     6    21    22    1
     7    22    23    1
     8    23    24    1
     9    24    25    1
    10    25    27    1
    11    27    28    1
    12    28    29    1
    13    29    30   ar
    14    30    31   ar
    15    31    32   ar
    16    32    33   ar
    17    33    34   ar
    18    33    35    1
    19    35    36    1
    20    36    37    1
    21    37    38    1
    22    25    26    1
    23     1     2    1
    24     2     3   ar
    25     3     4   ar
    26     4    14    1
    27    14    15    1
    28    15    16    1
    29     4     5   ar
    30     5     6   ar
    31     6     8    1
    32     8     9    1
    33     9    10    1
    34    10    11    1
    35    11    12    1
    36    12    13    1
    37     6     7   ar
    38    26    22    1
    39     7     2   ar
    40    34    29   ar
    41    16    14    1
    42    13     8    1
    43    38    32    1
    44    35    39    1
@<TRIPOS>MOLECULE
*****
 39 44 0 0 0
SMALL
GASTEIGER

@<TRIPOS>ATOM
      1 C         140.0345  138.1915  165.1700 C.3     1  UNL1        0.0439
      2 C         139.9538  139.6682  165.4215 C.ar    1  UNL1       -0.0199
      3 C         139.2352  140.5563  164.4496 C.ar    1  UNL1       -0.0084
      4 C         139.1545  142.0329  164.7011 C.ar    1  UNL1       -0.0216
      5 C         139.7925  142.6213  165.9246 C.ar    1  UNL1        0.0102
      6 C         140.5111  141.7331  166.8965 C.ar    1  UNL1        0.0473
      7 C         140.5917  140.2565  166.6450 C.ar    1  UNL1        0.0103
      8 N         141.1490  142.3215  168.1200 N.pl3   1  UNL1       -0.3028
      9 C         142.5455  141.9279  168.5006 C.3     1  UNL1        0.1231
     10 C         143.1834  142.5163  169.7240 C.3     1  UNL1        0.1636
     11 O         142.4248  143.4982  170.5669 O.3     1  UNL1       -0.3501
     12 C         141.0283  143.8917  170.1862 C.3     1  UNL1        0.1636
     13 C         140.3904  143.3034  168.9628 C.3     1  UNL1        0.1231
     14 C         138.4360  142.9211  163.7291 C.3     1  UNL1        0.0224
     15 C         137.9433  143.1952  162.3391 C.3     1  UNL1        0.0047
     16 C         137.6840  144.1853  163.4356 C.3     1  UNL1        0.0047
     17 C         138.8188  137.3321  165.3528 C.3     1  UNL1        0.0474
     18 O         137.3775  139.0188  166.7049 O.co2   1  UNL1       -0.5492
     19 C         137.8594  137.6178  166.4699 C.2     1  UNL1        0.0507
     20 O         137.3818  136.5025  167.3520 O.co2   1  UNL1       -0.5492
     21 C         141.3309  137.5744  164.7358 C.3     1  UNL1        0.0768
     22 N         142.3477  138.4011  164.0059 N.3     1  UNL1       -0.2724
     23 C         142.4412  138.5729  162.5187 C.3     1  UNL1        0.0721
     24 C         143.6008  139.4791  162.2287 C.3     1  UNL1        0.0187
     25 C         144.2240  139.8674  163.5367 C.3     1  UNL1        0.0178
     26 C         143.4495  139.2011  164.6350 C.3     1  UNL1        0.0721
     27 C         145.4129  140.7644  163.7150 C.3     1  UNL1        0.0077
     28 C         145.2220  142.1814  164.1684 C.3     1  UNL1        0.0459
     29 C         144.0884  142.9976  163.6216 C.ar    1  UNL1        0.0603
     30 C         143.1571  143.7095  164.5575 C.ar    1  UNL1        0.0145
     31 C         142.0236  144.5257  164.0107 C.ar    1  UNL1       -0.0003
     32 C         141.8214  144.6300  162.5280 C.ar    1  UNL1        0.0092
     33 C         142.7528  143.9181  161.5921 C.ar    1  UNL1        0.1240
     34 N         143.8863  143.1019  162.1390 N.ar    1  UNL1       -0.2356
     35 N         142.5506  144.0225  160.1095 N.pl3   1  UNL1       -0.3184
     36 C         141.4172  144.8387  159.5628 C.3     1  UNL1        0.0885
     37 C         140.4858  145.5505  160.4986 C.3     1  UNL1        0.0260
     38 C         140.6880  145.4462  161.9813 C.3     1  UNL1        0.0309
     39 H         143.1619  143.5552  159.4953 H       1  UNL1        0.1482
@<TRIPOS>UNITY_ATOM_ATTR
18 1
charge -1
@<TRIPOS>BOND
     1    18    19   ar
     2    19    20   ar
     3    19    17    1
     4     1    17    1
     5     1    21    1
     6    21    22    1
     7    22    23    1
     8    23    24    1
     9    24    25    1
    10    25    27    1
    11    27    28    1
    12    28    29    1
    13    29    30   ar
    14    30    31   ar
    15    31    32   ar
    16    32    33   ar
    17    33    34   ar
    18    33    35    1
    19    35    36    1
    20    36    37    1
    21    37    38    1
    22    25    26    1
    23     1     2    1
    24     2     3   ar
    25     3     4   ar
    26     4    14    1
    27    14    15    1
    28    15    16    1
    29     4     5   ar
    30     5     6   ar
    31     6     8    1
    32     8     9    1
    33     9    10    1
    34    10    11    1
    35    11    12    1
    36    12    13    1
    37     6     7   ar
    38    26    22    1
    39     7     2   ar
    40    34    29   ar
    41    16    14    1
    42    13     8    1
    43    38    32    1
    44    35    39    1
@<TRIPOS>MOLECULE
*****
 39 44 0 0 0
SMALL
GASTEIGER

@<TRIPOS>ATOM
      1 C         139.2054  143.6479  164.5429 C.3     1  UNL1        0.0439
      2 C         140.4700  143.1302  165.1616 C.ar    1  UNL1       -0.0199
      3 C         141.7157  143.0115  164.3345 C.ar    1  UNL1       -0.0084
      4 C         142.9803  142.4939  164.9532 C.ar    1  UNL1       -0.0216
      5 C         142.9992  142.0950  166.3991 C.ar    1  UNL1        0.0102
      6 C         141.7536  142.2137  167.2262 C.ar    1  UNL1        0.0473
      7 C         140.4890  142.7313  166.6075 C.ar    1  UNL1        0.0103
      8 N         141.7725  141.8148  168.6721 N.pl3   1  UNL1       -0.3028
      9 C         142.7777  140.8147  169.1610 C.3     1  UNL1        0.1231
     10 C         142.7967  140.4158  170.6069 C.3     1  UNL1        0.1636
     11 O         141.8103  141.0170  171.5638 O.3     1  UNL1       -0.3501
     12 C         140.8050  142.0171  171.0748 C.3     1  UNL1        0.1636
     13 C         140.7861  142.4160  169.6290 C.3     1  UNL1        0.1231
     14 C         144.2260  142.3752  164.1261 C.3     1  UNL1        0.0224
     15 C         145.6270  141.8681  163.9531 C.3     1  UNL1        0.0047
     16 C         144.9826  142.6767  162.8665 C.3     1  UNL1        0.0047
     17 C         139.1632  145.0335  163.9700 C.3     1  UNL1        0.0474
     18 O         138.9087  144.1709  161.5325 O.co2   1  UNL1       -0.5492
     19 C         139.3344  145.2405  162.4943 C.2     1  UNL1        0.0507
     20 O         139.9312  146.5171  161.9802 O.co2   1  UNL1       -0.5492
     21 C         137.9829  142.7798  164.4971 C.3     1  UNL1        0.0768
     22 N         138.1070  141.3278  164.1418 N.3     1  UNL1       -0.2724
     23 C         137.8479  140.7249  162.7929 C.3     1  UNL1        0.0721
     24 C         138.0928  139.2482  162.8904 C.3     1  UNL1        0.0187
     25 C         138.5031  138.9385  164.2996 C.3     1  UNL1        0.0178
     26 C         138.5119  140.2238  165.0729 C.3     1  UNL1        0.0721
     27 C         138.8447  137.5818  164.8403 C.3     1  UNL1        0.0077
     28 C         140.2309  137.0342  164.6710 C.3     1  UNL1        0.0459
     29 C         141.1870  137.6934  163.7216 C.ar    1  UNL1        0.0603
     30 C         142.3479  138.4809  164.2526 C.ar    1  UNL1        0.0145
     31 C         143.3040  139.1401  163.3032 C.ar    1  UNL1       -0.0003
     32 C         143.0991  139.0118  161.8228 C.ar    1  UNL1        0.0092
     33 C         141.9382  138.2243  161.2918 C.ar    1  UNL1        0.1240
     34 N         140.9821  137.5651  162.2412 N.ar    1  UNL1       -0.2356
     35 N         141.7333  138.0960  159.8114 N.pl3   1  UNL1       -0.3184
     36 C         142.6894  138.7552  158.8621 C.3     1  UNL1        0.0885
     37 C         143.8503  139.5427  159.3931 C.3     1  UNL1        0.0260
     38 C         144.0552  139.6711  160.8734 C.3     1  UNL1        0.0309
     39 H         140.9713  137.5791  159.4629 H       1  UNL1        0.1482
@<TRIPOS>UNITY_ATOM_ATTR
18 1
charge -1
@<TRIPOS>BOND
     1    18    19   ar
     2    19    20   ar
     3    19    17    1
     4     1    17    1
     5     1    21    1
     6    21    22    1
     7    22    23    1
     8    23    24    1
     9    24    25    1
    10    25    27    1
    11    27    28    1
    12    28    29    1
    13    29    30   ar
    14    30    31   ar
    15    31    32   ar
    16    32    33   ar
    17    33    34   ar
    18    33    35    1
    19    35    36    1
    20    36    37    1
    21    37    38    1
    22    25    26    1
    23     1     2    1
    24     2     3   ar
    25     3     4   ar
    26     4    14    1
    27    14    15    1
    28    15    16    1
    29     4     5   ar
    30     5     6   ar
    31     6     8    1
    32     8     9    1
    33     9    10    1
    34    10    11    1
    35    11    12    1
    36    12    13    1
    37     6     7   ar
    38    26    22    1
    39     7     2   ar
    40    34    29   ar
    41    16    14    1
    42    13     8    1
    43    38    32    1
    44    35    39    1
@<TRIPOS>MOLECULE
*****
 39 44 0 0 0
SMALL
GASTEIGER

@<TRIPOS>ATOM
      1 C         139.2973  144.4037  163.4891 C.3     1  UNL1        0.0439
      2 C         140.3038  143.7245  164.3699 C.ar    1  UNL1       -0.0199
      3 C         141.6917  143.4671  163.8628 C.ar    1  UNL1       -0.0084
      4 C         142.6981  142.7879  164.7436 C.ar    1  UNL1       -0.0216
      5 C         142.3165  142.3661  166.1316 C.ar    1  UNL1        0.0102
      6 C         140.9286  142.6235  166.6388 C.ar    1  UNL1        0.0473
      7 C         139.9222  143.3027  165.7579 C.ar    1  UNL1        0.0103
      8 N         140.5470  142.2017  168.0268 N.pl3   1  UNL1       -0.3028
      9 C         140.2982  140.7537  168.3288 C.3     1  UNL1        0.1231
     10 C         139.9166  140.3320  169.7168 C.3     1  UNL1        0.1636
     11 O         139.7839  141.3582  170.8027 O.3     1  UNL1       -0.3501
     12 C         140.0327  142.8062  170.5006 C.3     1  UNL1        0.1636
     13 C         140.4142  143.2280  169.1127 C.3     1  UNL1        0.1231
     14 C         144.0861  142.5305  164.2364 C.3     1  UNL1        0.0224
     15 C         145.5287  142.2168  164.5017 C.3     1  UNL1        0.0047
     16 C         145.0475  142.3983  163.0927 C.3     1  UNL1        0.0047
     17 C         139.5621  145.7885  162.9771 C.3     1  UNL1        0.0474
     18 O         139.1825  147.0108  160.7161 O.co2   1  UNL1       -0.5492
     19 C         139.9256  145.9989  161.5371 C.2     1  UNL1        0.0507
     20 O         141.0322  145.1975  160.9181 O.co2   1  UNL1       -0.5492
     21 C         138.0260  143.6980  163.1204 C.3     1  UNL1        0.0768
     22 N         138.0712  142.4764  162.2511 N.3     1  UNL1       -0.2724
     23 C         138.7805  142.3567  160.9348 C.3     1  UNL1        0.0721
     24 C         138.5628  140.9663  160.4157 C.3     1  UNL1        0.0187
     25 C         137.7190  140.2267  161.4112 C.3     1  UNL1        0.0178
     26 C         137.4152  141.1600  162.5456 C.3     1  UNL1        0.0721
     27 C         137.2597  138.8037  161.2931 C.3     1  UNL1        0.0077
     28 C         138.1164  137.6926  161.8237 C.3     1  UNL1        0.0459
     29 C         139.2006  137.9902  162.8167 C.ar    1  UNL1        0.0603
     30 C         138.8630  138.1545  164.2690 C.ar    1  UNL1        0.0145
     31 C         139.9471  138.4521  165.2620 C.ar    1  UNL1       -0.0003
     32 C         141.3689  138.5854  164.8027 C.ar    1  UNL1        0.0092
     33 C         141.7065  138.4211  163.3505 C.ar    1  UNL1        0.1240
     34 N         140.6223  138.1235  162.3575 N.ar    1  UNL1       -0.2356
     35 N         143.1282  138.5544  162.8912 N.pl3   1  UNL1       -0.3184
     36 C         144.2123  138.8520  163.8842 C.3     1  UNL1        0.0885
     37 C         143.8747  139.0163  165.3365 C.3     1  UNL1        0.0260
     38 C         142.4530  138.8830  165.7957 C.3     1  UNL1        0.0309
     39 H         143.3497  138.4466  161.9381 H       1  UNL1        0.1482
@<TRIPOS>UNITY_ATOM_ATTR
18 1
charge -1
@<TRIPOS>BOND
     1    18    19   ar
     2    19    20   ar
     3    19    17    1
     4     1    17    1
     5     1    21    1
     6    21    22    1
     7    22    23    1
     8    23    24    1
     9    24    25    1
    10    25    27    1
    11    27    28    1
    12    28    29    1
    13    29    30   ar
    14    30    31   ar
    15    31    32   ar
    16    32    33   ar
    17    33    34   ar
    18    33    35    1
    19    35    36    1
    20    36    37    1
    21    37    38    1
    22    25    26    1
    23     1     2    1
    24     2     3   ar
    25     3     4   ar
    26     4    14    1
    27    14    15    1
    28    15    16    1
    29     4     5   ar
    30     5     6   ar
    31     6     8    1
    32     8     9    1
    33     9    10    1
    34    10    11    1
    35    11    12    1
    36    12    13    1
    37     6     7   ar
    38    26    22    1
    39     7     2   ar
    40    34    29   ar
    41    16    14    1
    42    13     8    1
    43    38    32    1
    44    35    39    1
@<TRIPOS>MOLECULE
*****
 39 44 0 0 0
SMALL
GASTEIGER

@<TRIPOS>ATOM
      1 C         142.3514  138.3744  162.7475 C.3     1  UNL1        0.0439
      2 C         142.3843  139.4900  163.7497 C.ar    1  UNL1       -0.0199
      3 C         142.9420  140.8281  163.3645 C.ar    1  UNL1       -0.0084
      4 C         142.9748  141.9437  164.3667 C.ar    1  UNL1       -0.0216
      5 C         142.4499  141.7211  165.7541 C.ar    1  UNL1        0.0102
      6 C         141.8922  140.3830  166.1394 C.ar    1  UNL1        0.0473
      7 C         141.8594  139.2675  165.1371 C.ar    1  UNL1        0.0103
      8 N         141.3673  140.1605  167.5268 N.pl3   1  UNL1       -0.3028
      9 C         142.2785  139.6408  168.5989 C.3     1  UNL1        0.1231
     10 C         141.7536  139.4182  169.9864 C.3     1  UNL1        0.1636
     11 O         140.3176  139.7154  170.3016 O.3     1  UNL1       -0.3501
     12 C         139.4064  140.2351  169.2294 C.3     1  UNL1        0.1636
     13 C         139.9313  140.4577  167.8421 C.3     1  UNL1        0.1231
     14 C         143.5325  143.2818  163.9815 C.3     1  UNL1        0.0224
     15 C         143.9013  144.6893  164.3461 C.3     1  UNL1        0.0047
     16 C         144.1299  144.1919  162.9496 C.3     1  UNL1        0.0047
     17 C         143.5832  138.0359  161.9613 C.3     1  UNL1        0.0474
     18 O         144.2468  139.3967  159.8499 O.co2   1  UNL1       -0.5492
     19 C         143.5898  138.1993  160.4702 C.2     1  UNL1        0.0507
     20 O         142.9395  137.1654  159.5996 O.co2   1  UNL1       -0.5492
     21 C         141.0867  137.5973  162.5314 C.3     1  UNL1        0.0768
     22 N         139.9264  138.2341  161.8255 N.3     1  UNL1       -0.2724
     23 C         138.4973  138.2120  162.2809 C.3     1  UNL1        0.0721
     24 C         137.6792  138.9691  161.2772 C.3     1  UNL1        0.0187
     25 C         138.6026  139.4592  160.2015 C.3     1  UNL1        0.0178
     26 C         139.9915  139.0049  160.5404 C.3     1  UNL1        0.0721
     27 C         138.2068  140.2624  158.9982 C.3     1  UNL1        0.0077
     28 C         138.3191  141.7579  159.0247 C.3     1  UNL1        0.0459
     29 C         138.7891  142.4529  160.2682 C.ar    1  UNL1        0.0603
     30 C         140.2311  142.8404  160.4114 C.ar    1  UNL1        0.0145
     31 C         140.7011  143.5353  161.6548 C.ar    1  UNL1       -0.0003
     32 C         139.7290  143.8427  162.7552 C.ar    1  UNL1        0.0092
     33 C         138.2870  143.4552  162.6120 C.ar    1  UNL1        0.1240
     34 N         137.8171  142.7602  161.3685 N.ar    1  UNL1       -0.2356
     35 N         137.3150  143.7626  163.7123 N.pl3   1  UNL1       -0.3184
     36 C         137.7850  144.4574  164.9557 C.3     1  UNL1        0.0885
     37 C         139.2270  144.8449  165.0989 C.3     1  UNL1        0.0260
     38 C         140.1990  144.5376  163.9986 C.3     1  UNL1        0.0309
     39 H         136.3686  143.5082  163.6183 H       1  UNL1        0.1482
@<TRIPOS>UNITY_ATOM_ATTR
18 1
charge -1
@<TRIPOS>BOND
     1    18    19   ar
     2    19    20   ar
     3    19    17    1
     4     1    17    1
     5     1    21    1
     6    21    22    1
     7    22    23    1
     8    23    24    1
     9    24    25    1
    10    25    27    1
    11    27    28    1
    12    28    29    1
    13    29    30   ar
    14    30    31   ar
    15    31    32   ar
    16    32    33   ar
    17    33    34   ar
    18    33    35    1
    19    35    36    1
    20    36    37    1
    21    37    38    1
    22    25    26    1
    23     1     2    1
    24     2     3   ar
    25     3     4   ar
    26     4    14    1
    27    14    15    1
    28    15    16    1
    29     4     5   ar
    30     5     6   ar
    31     6     8    1
    32     8     9    1
    33     9    10    1
    34    10    11    1
    35    11    12    1
    36    12    13    1
    37     6     7   ar
    38    26    22    1
    39     7     2   ar
    40    34    29   ar
    41    16    14    1
    42    13     8    1
    43    38    32    1
    44    35    39    1
@<TRIPOS>MOLECULE
*****
 39 44 0 0 0
SMALL
GASTEIGER

@<TRIPOS>ATOM
      1 C         140.7371  143.9435  163.6084 C.3     1  UNL1        0.0439
      2 C         140.6492  142.6685  164.3939 C.ar    1  UNL1       -0.0199
      3 C         140.6922  141.3469  163.6858 C.ar    1  UNL1       -0.0084
      4 C         140.6042  140.0720  164.4713 C.ar    1  UNL1       -0.0216
      5 C         140.4733  140.1188  165.9648 C.ar    1  UNL1        0.0102
      6 C         140.4303  141.4404  166.6729 C.ar    1  UNL1        0.0473
      7 C         140.5182  142.7153  165.8875 C.ar    1  UNL1        0.0103
      8 N         140.2993  141.4872  168.1665 N.pl3   1  UNL1       -0.3028
      9 C         140.0852  140.2204  168.9405 C.3     1  UNL1        0.1231
     10 C         139.9542  140.2671  170.4341 C.3     1  UNL1        0.1636
     11 O         140.0375  141.5807  171.1535 O.3     1  UNL1       -0.3501
     12 C         140.2516  142.8475  170.3794 C.3     1  UNL1        0.1636
     13 C         140.3826  142.8007  168.8859 C.3     1  UNL1        0.1231
     14 C         140.6472  138.7504  163.7632 C.3     1  UNL1        0.0224
     15 C         141.1825  137.3537  163.6508 C.3     1  UNL1        0.0047
     16 C         140.1864  137.8579  162.6491 C.3     1  UNL1        0.0047
     17 C         141.7820  144.9641  163.9498 C.3     1  UNL1        0.0474
     18 O         143.6439  144.7202  162.1541 O.co2   1  UNL1       -0.5492
     19 C         143.2176  144.7162  163.5923 C.2     1  UNL1        0.0507
     20 O         144.2268  144.4644  164.6731 O.co2   1  UNL1       -0.5492
     21 C         139.7801  144.1977  162.4817 C.3     1  UNL1        0.0768
     22 N         140.2759  144.2149  161.0661 N.3     1  UNL1       -0.2724
     23 C         140.4278  145.4300  160.1997 C.3     1  UNL1        0.0721
     24 C         140.9525  144.9860  158.8665 C.3     1  UNL1        0.0187
     25 C         141.1249  143.4965  158.9088 C.3     1  UNL1        0.0178
     26 C         140.7067  143.0200  160.2682 C.3     1  UNL1        0.0721
     27 C         141.6272  142.6349  157.7884 C.3     1  UNL1        0.0077
     28 C         142.9118  141.8763  157.9438 C.3     1  UNL1        0.0459
     29 C         143.2699  141.2709  159.2688 C.ar    1  UNL1        0.0603
     30 C         142.7269  139.9256  159.6499 C.ar    1  UNL1        0.0145
     31 C         143.0849  139.3202  160.9747 C.ar    1  UNL1       -0.0003
     32 C         143.9859  140.0602  161.9186 C.ar    1  UNL1        0.0092
     33 C         144.5288  141.4055  161.5375 C.ar    1  UNL1        0.1240
     34 N         144.1708  142.0109  160.2125 N.ar    1  UNL1       -0.2356
     35 N         145.4298  142.1454  162.4812 N.pl3   1  UNL1       -0.3184
     36 C         145.7878  141.5401  163.8061 C.3     1  UNL1        0.0885
     37 C         145.2448  140.1947  164.1872 C.3     1  UNL1        0.0260
     38 C         144.3438  139.4548  163.2434 C.3     1  UNL1        0.0309
     39 H         145.7862  143.0284  162.2311 H       1  UNL1        0.1482
@<TRIPOS>UNITY_ATOM_ATTR
18 1
charge -1
@<TRIPOS>BOND
     1    18    19   ar
     2    19    20   ar
     3    19    17    1
     4     1    17    1
     5     1    21    1
     6    21    22    1
     7    22    23    1
     8    23    24    1
     9    24    25    1
    10    25    27    1
    11    27    28    1
    12    28    29    1
    13    29    30   ar
    14    30    31   ar
    15    31    32   ar
    16    32    33   ar
    17    33    34   ar
    18    33    35    1
    19    35    36    1
    20    36    37    1
    21    37    38    1
    22    25    26    1
    23     1     2    1
    24     2     3   ar
    25     3     4   ar
    26     4    14    1
    27    14    15    1
    28    15    16    1
    29     4     5   ar
    30     5     6   ar
    31     6     8    1
    32     8     9    1
    33     9    10    1
    34    10    11    1
    35    11    12    1
    36    12    13    1
    37     6     7   ar
    38    26    22    1
    39     7     2   ar
    40    34    29   ar
    41    16    14    1
    42    13     8    1
    43    38    32    1
    44    35    39    1
@<TRIPOS>MOLECULE
*****
 39 44 0 0 0
SMALL
GASTEIGER

@<TRIPOS>ATOM
      1 C         139.3888  143.7448  164.2050 C.3     1  UNL1        0.0439
      2 C         140.4725  143.1295  165.0400 C.ar    1  UNL1       -0.0199
      3 C         141.7414  142.6585  164.3935 C.ar    1  UNL1       -0.0084
      4 C         142.8250  142.0432  165.2284 C.ar    1  UNL1       -0.0216
      5 C         142.6397  141.8990  166.7100 C.ar    1  UNL1        0.0102
      6 C         141.3709  142.3700  167.3565 C.ar    1  UNL1        0.0473
      7 C         140.2872  142.9852  166.5215 C.ar    1  UNL1        0.0103
      8 N         141.1856  142.2257  168.8380 N.pl3   1  UNL1       -0.3028
      9 C         142.0426  141.2678  169.6112 C.3     1  UNL1        0.1231
     10 C         141.8574  141.1236  171.0928 C.3     1  UNL1        0.1636
     11 O         140.8151  141.9372  171.8010 O.3     1  UNL1       -0.3501
     12 C         139.9581  142.8951  171.0277 C.3     1  UNL1        0.1636
     13 C         140.1433  143.0393  169.5463 C.3     1  UNL1        0.1231
     14 C         144.0939  141.5722  164.5819 C.3     1  UNL1        0.0224
     15 C         145.0397  140.4612  164.2336 C.3     1  UNL1        0.0047
     16 C         145.3459  141.8673  163.8103 C.3     1  UNL1        0.0047
     17 C         137.9868  143.2181  164.2890 C.3     1  UNL1        0.0474
     18 O         137.0924  141.4164  162.6446 O.co2   1  UNL1       -0.5492
     19 C         137.7049  141.7810  163.9645 C.2     1  UNL1        0.0507
     20 O         138.0354  140.7085  164.9598 O.co2   1  UNL1       -0.5492
     21 C         139.7071  144.8869  163.2861 C.3     1  UNL1        0.0768
     22 N         139.8425  144.6477  161.8115 N.3     1  UNL1       -0.2724
     23 C         140.3201  145.6440  160.7969 C.3     1  UNL1        0.0721
     24 C         140.2969  144.9823  159.4509 C.3     1  UNL1        0.0187
     25 C         139.8050  143.5771  159.6337 C.3     1  UNL1        0.0178
     26 C         139.5242  143.3703  161.0926 C.3     1  UNL1        0.0721
     27 C         139.6254  142.5577  158.5481 C.3     1  UNL1        0.0077
     28 C         140.4108  141.2802  158.5816 C.3     1  UNL1        0.0459
     29 C         140.6844  140.6021  159.8914 C.ar    1  UNL1        0.0603
     30 C         142.0669  140.6244  160.4731 C.ar    1  UNL1        0.0145
     31 C         142.3405  139.9464  161.7827 C.ar    1  UNL1       -0.0003
     32 C         141.2317  139.2460  162.5108 C.ar    1  UNL1        0.0092
     33 C         139.8493  139.2237  161.9292 C.ar    1  UNL1        0.1240
     34 N         139.5756  139.9017  160.6194 N.ar    1  UNL1       -0.2356
     35 N         138.7405  138.5233  162.6572 N.pl3   1  UNL1       -0.3184
     36 C         139.0142  137.8453  163.9669 C.3     1  UNL1        0.0885
     37 C         140.3966  137.8676  164.5485 C.3     1  UNL1        0.0260
     38 C         141.5054  138.5680  163.8205 C.3     1  UNL1        0.0309
     39 H         137.8332  138.5086  162.2754 H       1  UNL1        0.1482
@<TRIPOS>UNITY_ATOM_ATTR
18 1
charge -1
@<TRIPOS>BOND
     1    18    19   ar
     2    19    20   ar
     3    19    17    1
     4     1    17    1
     5     1    21    1
     6    21    22    1
     7    22    23    1
     8    23    24    1
     9    24    25    1
    10    25    27    1
    11    27    28    1
    12    28    29    1
    13    29    30   ar
    14    30    31   ar
    15    31    32   ar
    16    32    33   ar
    17    33    34   ar
    18    33    35    1
    19    35    36    1
    20    36    37    1
    21    37    38    1
    22    25    26    1
    23     1     2    1
    24     2     3   ar
    25     3     4   ar
    26     4    14    1
    27    14    15    1
    28    15    16    1
    29     4     5   ar
    30     5     6   ar
    31     6     8    1
    32     8     9    1
    33     9    10    1
    34    10    11    1
    35    11    12    1
    36    12    13    1
    37     6     7   ar
    38    26    22    1
    39     7     2   ar
    40    34    29   ar
    41    16    14    1
    42    13     8    1
    43    38    32    1
    44    35    39    1
@<TRIPOS>MOLECULE
*****
 39 44 0 0 0
SMALL
GASTEIGER

@<TRIPOS>ATOM
      1 C         138.5153  141.7103  163.9720 C.3     1  UNL1        0.0439
      2 C         139.8788  141.6358  164.5928 C.ar    1  UNL1       -0.0199
      3 C         141.0416  141.1312  163.7908 C.ar    1  UNL1       -0.0084
      4 C         142.4050  141.0567  164.4116 C.ar    1  UNL1       -0.0216
      5 C         142.6058  141.4869  165.8345 C.ar    1  UNL1        0.0102
      6 C         141.4430  141.9916  166.6366 C.ar    1  UNL1        0.0473
      7 C         140.0796  142.0661  166.0157 C.ar    1  UNL1        0.0103
      8 N         141.6438  142.4218  168.0595 N.pl3   1  UNL1       -0.3028
      9 C         140.5080  143.0324  168.8257 C.3     1  UNL1        0.1231
     10 C         140.7087  143.4626  170.2486 C.3     1  UNL1        0.1636
     11 O         142.0452  143.2823  170.9052 O.3     1  UNL1       -0.3501
     12 C         143.1810  142.6717  170.1389 C.3     1  UNL1        0.1636
     13 C         142.9803  142.2415  168.7161 C.3     1  UNL1        0.1231
     14 C         143.5677  140.5520  163.6095 C.3     1  UNL1        0.0224
     15 C         144.9986  140.1084  163.5336 C.3     1  UNL1        0.0047
     16 C         144.1508  140.1215  162.2962 C.3     1  UNL1        0.0047
     17 C         137.6336  142.8942  164.2384 C.3     1  UNL1        0.0474
     18 O         137.8672  144.8506  162.5448 O.co2   1  UNL1       -0.5492
     19 C         138.1139  144.2764  163.9085 C.2     1  UNL1        0.0507
     20 O         138.8410  145.0844  164.9421 O.co2   1  UNL1       -0.5492
     21 C         138.0335  140.6008  163.0849 C.3     1  UNL1        0.0768
     22 N         138.2850  140.6591  161.6073 N.3     1  UNL1       -0.2724
     23 C         138.6188  139.4942  160.7231 C.3     1  UNL1        0.0721
     24 C         138.7869  140.0077  159.3238 C.3     1  UNL1        0.0187
     25 C         138.5571  141.4898  159.3431 C.3     1  UNL1        0.0178
     26 C         138.2469  141.8924  160.7544 C.3     1  UNL1        0.0721
     27 C         138.6254  142.4081  158.1591 C.3     1  UNL1        0.0077
     28 C         139.7501  143.3931  158.0379 C.3     1  UNL1        0.0459
     29 C         140.7507  143.5293  159.1471 C.ar    1  UNL1        0.0603
     30 C         142.0591  142.7997  159.0707 C.ar    1  UNL1        0.0145
     31 C         143.0596  142.9358  160.1799 C.ar    1  UNL1       -0.0003
     32 C         142.7518  143.8016  161.3656 C.ar    1  UNL1        0.0092
     33 C         141.4434  144.5312  161.4420 C.ar    1  UNL1        0.1240
     34 N         140.4428  144.3950  160.3327 N.ar    1  UNL1       -0.2356
     35 N         141.1355  145.3969  162.6276 N.pl3   1  UNL1       -0.3184
     36 C         142.1361  145.5331  163.7368 C.3     1  UNL1        0.0885
     37 C         143.4444  144.8035  163.6604 C.3     1  UNL1        0.0260
     38 C         143.7523  143.9377  162.4748 C.3     1  UNL1        0.0309
     39 H         140.2768  145.8758  162.6778 H       1  UNL1        0.1482
@<TRIPOS>UNITY_ATOM_ATTR
18 1
charge -1
@<TRIPOS>BOND
     1    18    19   ar
     2    19    20   ar
     3    19    17    1
     4     1    17    1
     5     1    21    1
     6    21    22    1
     7    22    23    1
     8    23    24    1
     9    24    25    1
    10    25    27    1
    11    27    28    1
    12    28    29    1
    13    29    30   ar
    14    30    31   ar
    15    31    32   ar
    16    32    33   ar
    17    33    34   ar
    18    33    35    1
    19    35    36    1
    20    36    37    1
    21    37    38    1
    22    25    26    1
    23     1     2    1
    24     2     3   ar
    25     3     4   ar
    26     4    14    1
    27    14    15    1
    28    15    16    1
    29     4     5   ar
    30     5     6   ar
    31     6     8    1
    32     8     9    1
    33     9    10    1
    34    10    11    1
    35    11    12    1
    36    12    13    1
    37     6     7   ar
    38    26    22    1
    39     7     2   ar
    40    34    29   ar
    41    16    14    1
    42    13     8    1
    43    38    32    1
    44    35    39    1
@<TRIPOS>MOLECULE
*****
 39 44 0 0 0
SMALL
GASTEIGER

@<TRIPOS>ATOM
      1 C         139.1645  138.6982  164.4131 C.3     1  UNL1        0.0439
      2 C         139.7346  140.0687  164.6296 C.ar    1  UNL1       -0.0199
      3 C         140.4328  140.3960  165.9162 C.ar    1  UNL1       -0.0084
      4 C         141.0029  141.7664  166.1326 C.ar    1  UNL1       -0.0216
      5 C         140.8748  142.8096  165.0624 C.ar    1  UNL1        0.0102
      6 C         140.1767  142.4824  163.7757 C.ar    1  UNL1        0.0473
      7 C         139.6066  141.1119  163.5593 C.ar    1  UNL1        0.0103
      8 N         140.0486  143.5255  162.7055 N.pl3   1  UNL1       -0.3028
      9 C         140.1091  143.1286  161.2603 C.3     1  UNL1        0.1231
     10 C         139.9810  144.1718  160.1901 C.3     1  UNL1        0.1636
     11 O         139.7925  145.6119  160.5651 O.3     1  UNL1       -0.3501
     12 C         139.7320  146.0087  162.0104 C.3     1  UNL1        0.1636
     13 C         139.8601  144.9656  163.0806 C.3     1  UNL1        0.1231
     14 C         141.7010  142.0937  167.4193 C.3     1  UNL1        0.0224
     15 C         142.9670  142.2292  168.2123 C.3     1  UNL1        0.0047
     16 C         141.6443  142.5250  168.8548 C.3     1  UNL1        0.0047
     17 C         139.0612  137.7388  165.5616 C.3     1  UNL1        0.0474
     18 O         137.3762  136.6126  167.1872 O.co2   1  UNL1       -0.5492
     19 C         137.9189  137.8459  166.5279 C.2     1  UNL1        0.0507
     20 O         137.3194  139.1861  166.8349 O.co2   1  UNL1       -0.5492
     21 C         138.6976  138.2871  163.0481 C.3     1  UNL1        0.0768
     22 N         139.6282  138.3861  161.8759 N.3     1  UNL1       -0.2724
     23 C         139.2366  138.7077  160.4640 C.3     1  UNL1        0.0721
     24 C         140.4801  138.7012  159.6252 C.3     1  UNL1        0.0187
     25 C         141.6402  138.3756  160.5185 C.3     1  UNL1        0.0178
     26 C         141.1137  138.1808  161.9095 C.3     1  UNL1        0.0721
     27 C         143.0749  138.2642  160.0952 C.3     1  UNL1        0.0077
     28 C         144.1691  138.3890  161.1136 C.3     1  UNL1        0.0459
     29 C         144.1945  139.5627  162.0472 C.ar    1  UNL1        0.0603
     30 C         144.4906  139.3566  163.5032 C.ar    1  UNL1        0.0145
     31 C         144.5160  140.5303  164.4369 C.ar    1  UNL1       -0.0003
     32 C         144.2454  141.9102  163.9146 C.ar    1  UNL1        0.0092
     33 C         143.9494  142.1163  162.4586 C.ar    1  UNL1        0.1240
     34 N         143.9239  140.9425  161.5249 N.ar    1  UNL1       -0.2356
     35 N         143.6788  143.4961  161.9362 N.pl3   1  UNL1       -0.3184
     36 C         143.7042  144.6698  162.8699 C.3     1  UNL1        0.0885
     37 C         144.0003  144.4637  164.3259 C.3     1  UNL1        0.0260
     38 C         144.2708  143.0839  164.8482 C.3     1  UNL1        0.0309
     39 H         143.4845  143.6314  160.9806 H       1  UNL1        0.1482
@<TRIPOS>UNITY_ATOM_ATTR
18 1
charge -1
@<TRIPOS>BOND
     1    18    19   ar
     2    19    20   ar
     3    19    17    1
     4     1    17    1
     5     1    21    1
     6    21    22    1
     7    22    23    1
     8    23    24    1
     9    24    25    1
    10    25    27    1
    11    27    28    1
    12    28    29    1
    13    29    30   ar
    14    30    31   ar
    15    31    32   ar
    16    32    33   ar
    17    33    34   ar
    18    33    35    1
    19    35    36    1
    20    36    37    1
    21    37    38    1
    22    25    26    1
    23     1     2    1
    24     2     3   ar
    25     3     4   ar
    26     4    14    1
    27    14    15    1
    28    15    16    1
    29     4     5   ar
    30     5     6   ar
    31     6     8    1
    32     8     9    1
    33     9    10    1
    34    10    11    1
    35    11    12    1
    36    12    13    1
    37     6     7   ar
    38    26    22    1
    39     7     2   ar
    40    34    29   ar
    41    16    14    1
    42    13     8    1
    43    38    32    1
    44    35    39    1
