@<TRIPOS>MOLECULE
*****
 39 42 0 0 0
SMALL
GASTEIGER

@<TRIPOS>ATOM
      1 C         139.6329  142.7044  170.9720 C.3     1  UNL1        0.1183
      2 N         140.1954  141.8030  169.9132 N.am    1  UNL1       -0.2425
      3 C         141.4313  142.2055  169.1646 C.3     1  UNL1        0.1183
      4 C         141.9938  141.3041  168.1057 C.3     1  UNL1        0.1146
      5 C         142.9817  142.4309  168.0403 C.3     1  UNL1        0.0252
      6 C         141.3204  140.0002  167.7956 C.3     1  UNL1        0.2040
      7 O         140.0845  139.5976  168.5442 O.3     1  UNL1       -0.4351
      8 C         139.5220  140.4990  169.6030 C.2     1  UNL1        0.4049
      9 O         138.2860  140.0964  170.3516 O.2     1  UNL1       -0.2262
     10 N         142.8994  140.7941  167.0242 N.am    1  UNL1       -0.2867
     11 C         142.9751  141.5115  165.7091 C.2     1  UNL1        0.3059
     12 O         142.1452  142.7389  165.4754 O.2     1  UNL1       -0.2524
     13 N         143.8809  141.0013  164.6276 N.am    1  UNL1       -0.2485
     14 H         143.4441  139.9885  167.1776 H       1  UNL1        0.1510
     15 H         144.4256  140.1957  164.7809 H       1  UNL1        0.1583
     16 C         143.9565  141.7188  163.3125 C.ar    1  UNL1        0.1664
     17 N         142.7932  142.2578  162.5340 N.ar    1  UNL1       -0.2283
     18 C         143.3264  142.8953  161.2853 C.ar    1  UNL1        0.0667
     19 C         144.8194  142.7503  161.2920 C.ar    1  UNL1        0.0528
     20 S         145.2088  142.0231  162.5449 S.2     1  UNL1       -0.0511
     21 C         142.5100  143.5610  160.2174 C.3     1  UNL1        0.0360
     22 C         141.8931  144.4587  161.2486 C.3     1  UNL1        0.0059
     23 C         143.1270  142.6632  159.1861 C.3     1  UNL1        0.0059
     24 C         141.6937  144.2267  159.1494 C.3     1  UNL1        0.0059
     25 C         141.8829  139.0988  166.7368 C.3     1  UNL1        0.1181
     26 N         141.0461  138.7225  165.5501 N.3     1  UNL1       -0.2696
     27 C         141.3970  137.5104  164.7390 C.3     1  UNL1        0.0722
     28 C         140.5603  137.1341  163.5523 C.3     1  UNL1        0.0174
     29 C         139.3727  137.9699  163.1766 C.3     1  UNL1        0.0031
     30 C         139.0218  139.1819  163.9876 C.3     1  UNL1        0.0204
     31 C         139.8586  139.5583  165.1744 C.3     1  UNL1        0.0725
     32 C         137.8343  140.0177  163.6119 C.3     1  UNL1        0.0277
     33 C         138.0101  141.4752  163.3042 C.ar    1  UNL1       -0.0220
     34 C         138.4514  141.9051  161.9365 C.ar    1  UNL1       -0.0020
     35 C         138.6272  143.3626  161.6288 C.ar    1  UNL1        0.0293
     36 C         138.3617  144.3903  162.6888 C.ar    1  UNL1        0.1401
     37 F         138.5375  145.8478  162.3811 F       1  UNL1       -0.2042
     38 C         137.9204  143.9604  164.0564 C.ar    1  UNL1        0.0293
     39 C         137.7446  142.5029  164.3641 C.ar    1  UNL1       -0.0020
@<TRIPOS>BOND
     1     1     2    1
     2     2     3    1
     3     3     4    1
     4     4     5    1
     5     4    10    1
     6    10    11   am
     7    11    12    2
     8    11    13   am
     9    13    16    1
    10    16    17   ar
    11    17    18   ar
    12    18    21    1
    13    21    22    1
    14    21    23    1
    15    21    24    1
    16    18    19   ar
    17    19    20   ar
    18     4     6    1
    19     6    25    1
    20    25    26    1
    21    26    27    1
    22    27    28    1
    23    28    29    1
    24    29    30    1
    25    30    32    1
    26    32    33    1
    27    33    34   ar
    28    34    35   ar
    29    35    36   ar
    30    36    37    1
    31    36    38   ar
    32    38    39   ar
    33    30    31    1
    34     6     7    1
    35     7     8    1
    36     8     9    2
    37     8     2   am
    38    20    16   ar
    39    31    26    1
    40    39    33   ar
    41    10    14    1
    42    13    15    1
@<TRIPOS>MOLECULE
*****
 39 42 0 0 0
SMALL
GASTEIGER

@<TRIPOS>ATOM
      1 C         141.6147  143.7360  155.8664 C.3     1  UNL1        0.1183
      2 N         140.8095  143.4357  157.0958 N.am    1  UNL1       -0.2425
      3 C         140.6681  142.0205  157.5726 C.3     1  UNL1        0.1183
      4 C         139.8630  141.7202  158.8020 C.3     1  UNL1        0.1146
      5 C         140.2998  140.3339  158.4316 C.3     1  UNL1        0.0252
      6 C         139.1993  142.8350  159.5547 C.3     1  UNL1        0.2040
      7 O         139.3407  144.2502  159.0780 O.3     1  UNL1       -0.4351
      8 C         140.1458  144.5505  157.8486 C.2     1  UNL1        0.4049
      9 O         140.2872  145.9657  157.3718 O.2     1  UNL1       -0.2262
     10 N         139.2096  140.9383  159.9028 N.am    1  UNL1       -0.2867
     11 C         140.0402  140.3733  161.0167 C.2     1  UNL1        0.3059
     12 O         141.5245  140.5902  161.0298 O.2     1  UNL1       -0.2524
     13 N         139.3867  139.5914  162.1174 N.am    1  UNL1       -0.2485
     14 H         138.2355  140.7960  159.8942 H       1  UNL1        0.1510
     15 H         138.4126  139.4491  162.1088 H       1  UNL1        0.1583
     16 C         140.2174  139.0265  163.2313 C.ar    1  UNL1        0.1664
     17 N         140.6861  139.7706  164.4465 N.ar    1  UNL1       -0.2283
     18 C         141.4837  138.8223  165.2918 C.ar    1  UNL1        0.0667
     19 C         141.5080  137.4920  164.5990 C.ar    1  UNL1        0.0528
     20 S         140.7254  137.6183  163.3255 S.2     1  UNL1       -0.0511
     21 C         142.1415  139.1472  166.6001 C.3     1  UNL1        0.0360
     22 C         143.3651  138.3924  166.1723 C.3     1  UNL1        0.0059
     23 C         140.9179  139.9020  167.0279 C.3     1  UNL1        0.0059
     24 C         142.7994  139.4721  167.9085 C.3     1  UNL1        0.0059
     25 C         138.3941  142.5347  160.7842 C.3     1  UNL1        0.1181
     26 N         138.6684  143.2749  162.0597 N.3     1  UNL1       -0.2696
     27 C         137.5485  143.5635  163.0150 C.3     1  UNL1        0.0722
     28 C         137.8228  144.3037  164.2905 C.3     1  UNL1        0.0174
     29 C         139.2169  144.7552  164.6107 C.3     1  UNL1        0.0031
     30 C         140.3367  144.4666  163.6554 C.3     1  UNL1        0.0204
     31 C         140.0625  143.7264  162.3798 C.3     1  UNL1        0.0725
     32 C         141.7309  144.9182  163.9756 C.3     1  UNL1        0.0277
     33 C         142.8531  143.9235  164.0058 C.ar    1  UNL1       -0.0220
     34 C         143.8399  143.8715  162.8773 C.ar    1  UNL1       -0.0020
     35 C         144.9622  142.8767  162.9075 C.ar    1  UNL1        0.0293
     36 C         145.0977  141.9339  164.0663 C.ar    1  UNL1        0.1401
     37 F         146.2199  140.9391  164.0965 F       1  UNL1       -0.2042
     38 C         144.1109  141.9858  165.1948 C.ar    1  UNL1        0.0293
     39 C         142.9886  142.9806  165.1646 C.ar    1  UNL1       -0.0020
@<TRIPOS>BOND
     1     1     2    1
     2     2     3    1
     3     3     4    1
     4     4     5    1
     5     4    10    1
     6    10    11   am
     7    11    12    2
     8    11    13   am
     9    13    16    1
    10    16    17   ar
    11    17    18   ar
    12    18    21    1
    13    21    22    1
    14    21    23    1
    15    21    24    1
    16    18    19   ar
    17    19    20   ar
    18     4     6    1
    19     6    25    1
    20    25    26    1
    21    26    27    1
    22    27    28    1
    23    28    29    1
    24    29    30    1
    25    30    32    1
    26    32    33    1
    27    33    34   ar
    28    34    35   ar
    29    35    36   ar
    30    36    37    1
    31    36    38   ar
    32    38    39   ar
    33    30    31    1
    34     6     7    1
    35     7     8    1
    36     8     9    2
    37     8     2   am
    38    20    16   ar
    39    31    26    1
    40    39    33   ar
    41    10    14    1
    42    13    15    1
@<TRIPOS>MOLECULE
*****
 39 42 0 0 0
SMALL
GASTEIGER

@<TRIPOS>ATOM
      1 C         139.8600  138.4183  157.7671 C.3     1  UNL1        0.1183
      2 N         139.3055  139.3071  158.8407 N.am    1  UNL1       -0.2425
      3 C         138.8690  138.7191  160.1498 C.3     1  UNL1        0.1183
      4 C         138.3145  139.6079  161.2234 C.3     1  UNL1        0.1146
      5 C         138.2296  138.2796  161.9152 C.3     1  UNL1        0.0252
      6 C         138.1966  141.0845  160.9880 C.3     1  UNL1        0.2040
      7 O         138.6332  141.6725  159.6790 O.3     1  UNL1       -0.4351
      8 C         139.1876  140.7838  158.6053 C.2     1  UNL1        0.4049
      9 O         139.6242  141.3718  157.2962 O.2     1  UNL1       -0.2262
     10 N         137.7305  140.0352  162.5373 N.am    1  UNL1       -0.2867
     11 C         138.5864  140.0504  163.7691 C.2     1  UNL1        0.3059
     12 O         140.0263  139.6381  163.6870 O.2     1  UNL1       -0.2524
     13 N         138.0023  140.4778  165.0830 N.am    1  UNL1       -0.2485
     14 H         136.7855  140.3058  162.5913 H       1  UNL1        0.1510
     15 H         137.0573  140.7483  165.1369 H       1  UNL1        0.1583
     16 C         138.8582  140.4929  166.3147 C.ar    1  UNL1        0.1664
     17 N         139.9285  141.4947  166.6324 N.ar    1  UNL1       -0.2283
     18 C         140.5260  141.1299  167.9590 C.ar    1  UNL1        0.0667
     19 C         139.8250  139.9025  168.4613 C.ar    1  UNL1        0.0528
     20 S         138.7943  139.5088  167.4450 S.2     1  UNL1       -0.0511
     21 C         141.6305  141.8636  168.6603 C.3     1  UNL1        0.0360
     22 C         142.5707  140.7336  168.3618 C.3     1  UNL1        0.0059
     23 C         140.6904  142.9937  168.9587 C.3     1  UNL1        0.0059
     24 C         142.7350  142.5973  169.3615 C.3     1  UNL1        0.0059
     25 C         137.6421  141.9733  162.0617 C.3     1  UNL1        0.1181
     26 N         138.5504  142.9065  162.8060 N.3     1  UNL1       -0.2696
     27 C         137.9902  143.8199  163.8559 C.3     1  UNL1        0.0722
     28 C         138.8984  144.7531  164.6002 C.3     1  UNL1        0.0174
     29 C         140.3668  144.7731  164.2948 C.3     1  UNL1        0.0031
     30 C         140.9270  143.8599  163.2450 C.3     1  UNL1        0.0204
     31 C         140.0188  142.9265  162.5006 C.3     1  UNL1        0.0725
     32 C         142.3955  143.8799  162.9396 C.3     1  UNL1        0.0277
     33 C         143.2680  142.7406  163.3762 C.ar    1  UNL1       -0.0220
     34 C         144.6844  142.6516  162.8904 C.ar    1  UNL1       -0.0020
     35 C         145.5568  141.5123  163.3271 C.ar    1  UNL1        0.0293
     36 C         145.0130  140.4619  164.2496 C.ar    1  UNL1        0.1401
     37 F         145.8854  139.3226  164.6863 F       1  UNL1       -0.2042
     38 C         143.5967  140.5509  164.7354 C.ar    1  UNL1        0.0293
     39 C         142.7241  141.6902  164.2987 C.ar    1  UNL1       -0.0020
@<TRIPOS>BOND
     1     1     2    1
     2     2     3    1
     3     3     4    1
     4     4     5    1
     5     4    10    1
     6    10    11   am
     7    11    12    2
     8    11    13   am
     9    13    16    1
    10    16    17   ar
    11    17    18   ar
    12    18    21    1
    13    21    22    1
    14    21    23    1
    15    21    24    1
    16    18    19   ar
    17    19    20   ar
    18     4     6    1
    19     6    25    1
    20    25    26    1
    21    26    27    1
    22    27    28    1
    23    28    29    1
    24    29    30    1
    25    30    32    1
    26    32    33    1
    27    33    34   ar
    28    34    35   ar
    29    35    36   ar
    30    36    37    1
    31    36    38   ar
    32    38    39   ar
    33    30    31    1
    34     6     7    1
    35     7     8    1
    36     8     9    2
    37     8     2   am
    38    20    16   ar
    39    31    26    1
    40    39    33   ar
    41    10    14    1
    42    13    15    1
@<TRIPOS>MOLECULE
*****
 39 42 0 0 0
SMALL
GASTEIGER

@<TRIPOS>ATOM
      1 C         140.9426  144.8988  155.0925 C.3     1  UNL1        0.1183
      2 N         141.0846  144.9215  156.5856 N.am    1  UNL1       -0.2425
      3 C         142.0902  144.0339  157.2569 C.3     1  UNL1        0.1183
      4 C         142.2321  144.0565  158.7500 C.3     1  UNL1        0.1146
      5 C         143.2704  143.0303  158.4052 C.3     1  UNL1        0.0252
      6 C         141.3685  144.9669  159.5717 C.3     1  UNL1        0.2040
      7 O         140.3628  145.8545  158.9004 O.3     1  UNL1       -0.4351
      8 C         140.2209  145.8318  157.4073 C.2     1  UNL1        0.4049
      9 O         139.2152  146.7196  156.7360 O.2     1  UNL1       -0.2262
     10 N         142.7347  143.7228  160.1233 N.am    1  UNL1       -0.2867
     11 C         142.3793  142.4087  160.7533 C.2     1  UNL1        0.3059
     12 O         141.5213  141.4283  160.0098 O.2     1  UNL1       -0.2524
     13 N         142.8820  142.0750  162.1266 N.am    1  UNL1       -0.2485
     14 H         143.2979  144.3662  160.6112 H       1  UNL1        0.1510
     15 H         143.4451  142.7184  162.6145 H       1  UNL1        0.1583
     16 C         142.5265  140.7609  162.7565 C.ar    1  UNL1        0.1664
     17 N         141.1692  140.3599  163.2535 N.ar    1  UNL1       -0.2283
     18 C         141.2696  138.9682  163.8041 C.ar    1  UNL1        0.0667
     19 C         142.6891  138.5091  163.6474 C.ar    1  UNL1        0.0528
     20 S         143.4658  139.6170  163.0000 S.2     1  UNL1       -0.0511
     21 C         140.1477  138.1749  164.4058 C.3     1  UNL1        0.0360
     22 C         139.1942  139.2919  164.1005 C.3     1  UNL1        0.0059
     23 C         141.1012  137.0580  164.7111 C.3     1  UNL1        0.0059
     24 C         139.0258  137.3817  165.0075 C.3     1  UNL1        0.0059
     25 C         141.5104  144.9895  161.0648 C.3     1  UNL1        0.1181
     26 N         140.4597  144.3562  161.9278 N.3     1  UNL1       -0.2696
     27 C         139.1877  143.8522  161.3129 C.3     1  UNL1        0.0722
     28 C         138.1370  143.2189  162.1759 C.3     1  UNL1        0.0174
     29 C         138.3582  143.0893  163.6538 C.3     1  UNL1        0.0031
     30 C         139.6301  143.5932  164.2687 C.3     1  UNL1        0.0204
     31 C         140.6809  144.2266  163.4058 C.3     1  UNL1        0.0725
     32 C         139.8514  143.4637  165.7467 C.3     1  UNL1        0.0277
     33 C         140.6203  142.2962  166.2905 C.ar    1  UNL1       -0.0220
     34 C         139.9038  141.2045  167.0287 C.ar    1  UNL1       -0.0020
     35 C         140.6727  140.0371  167.5725 C.ar    1  UNL1        0.0293
     36 C         142.1581  139.9612  167.3781 C.ar    1  UNL1        0.1401
     37 F         142.9270  138.7937  167.9219 F       1  UNL1       -0.2042
     38 C         142.8746  141.0528  166.6399 C.ar    1  UNL1        0.0293
     39 C         142.1057  142.2203  166.0960 C.ar    1  UNL1       -0.0020
@<TRIPOS>BOND
     1     1     2    1
     2     2     3    1
     3     3     4    1
     4     4     5    1
     5     4    10    1
     6    10    11   am
     7    11    12    2
     8    11    13   am
     9    13    16    1
    10    16    17   ar
    11    17    18   ar
    12    18    21    1
    13    21    22    1
    14    21    23    1
    15    21    24    1
    16    18    19   ar
    17    19    20   ar
    18     4     6    1
    19     6    25    1
    20    25    26    1
    21    26    27    1
    22    27    28    1
    23    28    29    1
    24    29    30    1
    25    30    32    1
    26    32    33    1
    27    33    34   ar
    28    34    35   ar
    29    35    36   ar
    30    36    37    1
    31    36    38   ar
    32    38    39   ar
    33    30    31    1
    34     6     7    1
    35     7     8    1
    36     8     9    2
    37     8     2   am
    38    20    16   ar
    39    31    26    1
    40    39    33   ar
    41    10    14    1
    42    13    15    1
@<TRIPOS>MOLECULE
*****
 39 42 0 0 0
SMALL
GASTEIGER

@<TRIPOS>ATOM
      1 C         139.2674  139.7386  157.1339 C.3     1  UNL1        0.1183
      2 N         138.8987  140.1025  158.5416 N.am    1  UNL1       -0.2425
      3 C         139.1231  139.1209  159.6533 C.3     1  UNL1        0.1183
      4 C         138.7544  139.4848  161.0610 C.3     1  UNL1        0.1146
      5 C         139.2833  138.0984  161.2804 C.3     1  UNL1        0.0252
      6 C         138.1613  140.8303  161.3570 C.3     1  UNL1        0.2040
      7 O         137.9368  141.8120  160.2453 O.3     1  UNL1       -0.4351
      8 C         138.3056  141.4480  158.8376 C.2     1  UNL1        0.4049
      9 O         138.0811  142.4298  157.7258 O.2     1  UNL1       -0.2262
     10 N         138.5694  139.3671  162.5449 N.am    1  UNL1       -0.2867
     11 C         139.7552  139.4629  163.4585 C.2     1  UNL1        0.3059
     12 O         141.1261  139.6763  162.8883 O.2     1  UNL1       -0.2524
     13 N         139.5701  139.3452  164.9425 N.am    1  UNL1       -0.2485
     14 H         137.6697  139.2271  162.9192 H       1  UNL1        0.1510
     15 H         138.6703  139.2051  165.3167 H       1  UNL1        0.1583
     16 C         140.7559  139.4409  165.8560 C.ar    1  UNL1        0.1664
     17 N         140.8818  140.3465  167.0452 N.ar    1  UNL1       -0.2283
     18 C         142.2277  140.1132  167.6651 C.ar    1  UNL1        0.0667
     19 C         142.9337  139.0635  166.8589 C.ar    1  UNL1        0.0528
     20 S         142.0240  138.6480  165.7408 S.2     1  UNL1       -0.0511
     21 C         142.7721  140.8077  168.8780 C.3     1  UNL1        0.0360
     22 C         142.5392  139.5693  169.6917 C.3     1  UNL1        0.0059
     23 C         143.0051  142.0462  168.0644 C.3     1  UNL1        0.0059
     24 C         143.3166  141.5022  170.0910 C.3     1  UNL1        0.0059
     25 C         137.7926  141.1942  162.7647 C.3     1  UNL1        0.1181
     26 N         138.3183  142.4599  163.3744 N.3     1  UNL1       -0.2696
     27 C         137.5218  143.1726  164.4269 C.3     1  UNL1        0.0722
     28 C         138.0475  144.4382  165.0366 C.3     1  UNL1        0.0174
     29 C         139.3696  144.9912  164.5938 C.3     1  UNL1        0.0031
     30 C         140.1661  144.2786  163.5413 C.3     1  UNL1        0.0204
     31 C         139.6404  143.0129  162.9316 C.3     1  UNL1        0.0725
     32 C         141.4882  144.8316  163.0985 C.3     1  UNL1        0.0277
     33 C         142.7295  143.9990  163.2242 C.ar    1  UNL1       -0.0220
     34 C         143.4910  143.5975  161.9957 C.ar    1  UNL1       -0.0020
     35 C         144.7323  142.7649  162.1215 C.ar    1  UNL1        0.0293
     36 C         145.2122  142.3336  163.4756 C.ar    1  UNL1        0.1401
     37 F         146.4534  141.5010  163.6014 F       1  UNL1       -0.2042
     38 C         144.4508  142.7350  164.7041 C.ar    1  UNL1        0.0293
     39 C         143.2094  143.5677  164.5784 C.ar    1  UNL1       -0.0020
@<TRIPOS>BOND
     1     1     2    1
     2     2     3    1
     3     3     4    1
     4     4     5    1
     5     4    10    1
     6    10    11   am
     7    11    12    2
     8    11    13   am
     9    13    16    1
    10    16    17   ar
    11    17    18   ar
    12    18    21    1
    13    21    22    1
    14    21    23    1
    15    21    24    1
    16    18    19   ar
    17    19    20   ar
    18     4     6    1
    19     6    25    1
    20    25    26    1
    21    26    27    1
    22    27    28    1
    23    28    29    1
    24    29    30    1
    25    30    32    1
    26    32    33    1
    27    33    34   ar
    28    34    35   ar
    29    35    36   ar
    30    36    37    1
    31    36    38   ar
    32    38    39   ar
    33    30    31    1
    34     6     7    1
    35     7     8    1
    36     8     9    2
    37     8     2   am
    38    20    16   ar
    39    31    26    1
    40    39    33   ar
    41    10    14    1
    42    13    15    1
@<TRIPOS>MOLECULE
*****
 39 42 0 0 0
SMALL
GASTEIGER

@<TRIPOS>ATOM
      1 C         139.1935  139.4118  157.6239 C.3     1  UNL1        0.1183
      2 N         140.1557  139.2776  158.7668 N.am    1  UNL1       -0.2425
      3 C         139.6956  138.6953  160.0702 C.3     1  UNL1        0.1183
      4 C         140.6579  138.5611  161.2131 C.3     1  UNL1        0.1146
      5 C         139.4203  137.9985  161.8471 C.3     1  UNL1        0.0252
      6 C         142.0803  139.0092  161.0524 C.3     1  UNL1        0.2040
      7 O         142.5404  139.5915  159.7489 O.3     1  UNL1       -0.4351
      8 C         141.5782  139.7257  158.6061 C.2     1  UNL1        0.4049
      9 O         142.0384  140.3081  157.3025 O.2     1  UNL1       -0.2262
     10 N         141.1903  138.2315  162.5761 N.am    1  UNL1       -0.2867
     11 C         140.7757  139.0514  163.7618 C.2     1  UNL1        0.3059
     12 O         139.8286  140.2011  163.5844 O.2     1  UNL1       -0.2524
     13 N         141.3082  138.7217  165.1248 N.am    1  UNL1       -0.2485
     14 H         141.8119  137.4770  162.6925 H       1  UNL1        0.1510
     15 H         141.9298  137.9672  165.2412 H       1  UNL1        0.1583
     16 C         140.8936  139.5417  166.3104 C.ar    1  UNL1        0.1664
     17 N         141.7269  140.5827  166.9973 N.ar    1  UNL1       -0.2283
     18 C         140.9213  141.1492  168.1287 C.ar    1  UNL1        0.0667
     19 C         139.5899  140.4581  168.1411 C.ar    1  UNL1        0.0528
     20 S         139.5728  139.4647  167.0173 S.2     1  UNL1       -0.0511
     21 C         141.3684  142.2187  169.0806 C.3     1  UNL1        0.0360
     22 C         142.7605  142.1272  168.5296 C.3     1  UNL1        0.0059
     23 C         139.9763  142.3102  169.6317 C.3     1  UNL1        0.0059
     24 C         141.8155  143.2883  170.0325 C.3     1  UNL1        0.0059
     25 C         143.0425  138.8750  162.1952 C.3     1  UNL1        0.1181
     26 N         143.6496  140.1000  162.8123 N.3     1  UNL1       -0.2696
     27 C         144.9612  140.0049  163.5340 C.3     1  UNL1        0.0722
     28 C         145.5682  141.2299  164.1511 C.3     1  UNL1        0.0174
     29 C         144.8637  142.5501  164.0466 C.3     1  UNL1        0.0031
     30 C         143.5522  142.6452  163.3249 C.3     1  UNL1        0.0204
     31 C         142.9451  141.4202  162.7078 C.3     1  UNL1        0.0725
     32 C         142.8477  143.9654  163.2204 C.3     1  UNL1        0.0277
     33 C         141.4541  144.1161  163.7543 C.ar    1  UNL1       -0.0220
     34 C         141.0774  143.4779  165.0585 C.ar    1  UNL1       -0.0020
     35 C         139.6838  143.6287  165.5924 C.ar    1  UNL1        0.0293
     36 C         138.6669  144.4177  164.8221 C.ar    1  UNL1        0.1401
     37 F         137.2733  144.5685  165.3560 F       1  UNL1       -0.2042
     38 C         139.0435  145.0559  163.5180 C.ar    1  UNL1        0.0293
     39 C         140.4371  144.9051  162.9840 C.ar    1  UNL1       -0.0020
@<TRIPOS>BOND
     1     1     2    1
     2     2     3    1
     3     3     4    1
     4     4     5    1
     5     4    10    1
     6    10    11   am
     7    11    12    2
     8    11    13   am
     9    13    16    1
    10    16    17   ar
    11    17    18   ar
    12    18    21    1
    13    21    22    1
    14    21    23    1
    15    21    24    1
    16    18    19   ar
    17    19    20   ar
    18     4     6    1
    19     6    25    1
    20    25    26    1
    21    26    27    1
    22    27    28    1
    23    28    29    1
    24    29    30    1
    25    30    32    1
    26    32    33    1
    27    33    34   ar
    28    34    35   ar
    29    35    36   ar
    30    36    37    1
    31    36    38   ar
    32    38    39   ar
    33    30    31    1
    34     6     7    1
    35     7     8    1
    36     8     9    2
    37     8     2   am
    38    20    16   ar
    39    31    26    1
    40    39    33   ar
    41    10    14    1
    42    13    15    1
@<TRIPOS>MOLECULE
*****
 39 42 0 0 0
SMALL
GASTEIGER

@<TRIPOS>ATOM
      1 C         140.2431  142.6153  154.7019 C.3     1  UNL1        0.1183
      2 N         140.3034  143.1049  156.1185 N.am    1  UNL1       -0.2425
      3 C         141.6243  143.2032  156.8225 C.3     1  UNL1        0.1183
      4 C         141.6846  143.6928  158.2390 C.3     1  UNL1        0.1146
      5 C         143.1419  143.4411  157.9882 C.3     1  UNL1        0.0252
      6 C         140.4240  144.0841  158.9516 C.3     1  UNL1        0.2040
      7 O         139.1032  143.9859  158.2476 O.3     1  UNL1       -0.4351
      8 C         139.0429  143.4963  156.8310 C.2     1  UNL1        0.4049
      9 O         137.7219  143.3981  156.1270 O.2     1  UNL1       -0.2262
     10 N         142.2511  144.0949  159.5684 N.am    1  UNL1       -0.2867
     11 C         142.7343  143.0464  160.5261 C.2     1  UNL1        0.3059
     12 O         142.6511  141.5956  160.1542 O.2     1  UNL1       -0.2524
     13 N         143.3008  143.4487  161.8555 N.am    1  UNL1       -0.2485
     14 H         142.3057  145.0471  159.8125 H       1  UNL1        0.1510
     15 H         143.3554  144.4009  162.0995 H       1  UNL1        0.1583
     16 C         143.7840  142.4001  162.8130 C.ar    1  UNL1        0.1664
     17 N         142.9339  141.6294  163.7791 N.ar    1  UNL1       -0.2283
     18 C         143.8266  140.6910  164.5359 C.ar    1  UNL1        0.0667
     19 C         145.2285  140.8818  164.0374 C.ar    1  UNL1        0.0528
     20 S         145.2021  141.9381  162.9726 S.2     1  UNL1       -0.0511
     21 C         143.3935  139.7305  165.6035 C.3     1  UNL1        0.0360
     22 C         144.5947  138.8771  165.3230 C.3     1  UNL1        0.0059
     23 C         142.1922  140.5839  165.8840 C.3     1  UNL1        0.0059
     24 C         142.9604  138.7700  166.6712 C.3     1  UNL1        0.0059
     25 C         140.4843  144.5737  160.3682 C.3     1  UNL1        0.1181
     26 N         139.5181  144.0448  161.3863 N.3     1  UNL1       -0.2696
     27 C         138.9480  144.9624  162.4270 C.3     1  UNL1        0.0722
     28 C         137.9818  144.4334  163.4451 C.3     1  UNL1        0.0174
     29 C         137.5857  142.9868  163.4226 C.3     1  UNL1        0.0031
     30 C         138.1558  142.0692  162.3820 C.3     1  UNL1        0.0204
     31 C         139.1221  142.5982  161.3638 C.3     1  UNL1        0.0725
     32 C         137.7598  140.6226  162.3595 C.3     1  UNL1        0.0277
     33 C         138.6681  139.5870  162.9531 C.ar    1  UNL1       -0.0220
     34 C         138.5341  139.2121  164.3994 C.ar    1  UNL1       -0.0020
     35 C         139.4424  138.1765  164.9930 C.ar    1  UNL1        0.0293
     36 C         140.4848  137.5157  164.1404 C.ar    1  UNL1        0.1401
     37 F         141.3931  136.4801  164.7340 F       1  UNL1       -0.2042
     38 C         140.6188  137.8906  162.6942 C.ar    1  UNL1        0.0293
     39 C         139.7105  138.9262  162.1006 C.ar    1  UNL1       -0.0020
@<TRIPOS>BOND
     1     1     2    1
     2     2     3    1
     3     3     4    1
     4     4     5    1
     5     4    10    1
     6    10    11   am
     7    11    12    2
     8    11    13   am
     9    13    16    1
    10    16    17   ar
    11    17    18   ar
    12    18    21    1
    13    21    22    1
    14    21    23    1
    15    21    24    1
    16    18    19   ar
    17    19    20   ar
    18     4     6    1
    19     6    25    1
    20    25    26    1
    21    26    27    1
    22    27    28    1
    23    28    29    1
    24    29    30    1
    25    30    32    1
    26    32    33    1
    27    33    34   ar
    28    34    35   ar
    29    35    36   ar
    30    36    37    1
    31    36    38   ar
    32    38    39   ar
    33    30    31    1
    34     6     7    1
    35     7     8    1
    36     8     9    2
    37     8     2   am
    38    20    16   ar
    39    31    26    1
    40    39    33   ar
    41    10    14    1
    42    13    15    1
@<TRIPOS>MOLECULE
*****
 39 42 0 0 0
SMALL
GASTEIGER

@<TRIPOS>ATOM
      1 C         141.9054  145.8677  157.9162 C.3     1  UNL1        0.1183
      2 N         141.0363  144.9650  158.7407 N.am    1  UNL1       -0.2425
      3 C         140.6846  145.3435  160.1489 C.3     1  UNL1        0.1183
      4 C         139.8155  144.4408  160.9734 C.3     1  UNL1        0.1146
      5 C         140.0607  145.5412  161.9627 C.3     1  UNL1        0.0252
      6 C         139.2981  143.1596  160.3897 C.3     1  UNL1        0.2040
      7 O         139.6498  142.7811  158.9815 O.3     1  UNL1       -0.4351
      8 C         140.5189  143.6838  158.1570 C.2     1  UNL1        0.4049
      9 O         140.8706  143.3052  156.7488 O.2     1  UNL1       -0.2262
     10 N         139.0316  143.9203  162.1415 N.am    1  UNL1       -0.2867
     11 C         139.7469  143.4026  163.3540 C.2     1  UNL1        0.3059
     12 O         141.2463  143.4053  163.3985 O.2     1  UNL1       -0.2524
     13 N         138.9629  142.8821  164.5222 N.am    1  UNL1       -0.2485
     14 H         138.0475  143.9185  162.1123 H       1  UNL1        0.1510
     15 H         137.9788  142.8803  164.4930 H       1  UNL1        0.1583
     16 C         139.6782  142.3644  165.7347 C.ar    1  UNL1        0.1664
     17 N         140.3381  143.1988  166.7923 N.ar    1  UNL1       -0.2283
     18 C         140.9271  142.2716  167.8137 C.ar    1  UNL1        0.0667
     19 C         140.6312  140.8641  167.3875 C.ar    1  UNL1        0.0528
     20 S         139.8594  140.9216  166.1025 S.2     1  UNL1       -0.0511
     21 C         141.6798  142.6801  169.0453 C.3     1  UNL1        0.0360
     22 C         140.4598  143.3876  169.5562 C.3     1  UNL1        0.0059
     23 C         142.8998  141.9725  168.5343 C.3     1  UNL1        0.0059
     24 C         142.4325  143.0885  170.2768 C.3     1  UNL1        0.0059
     25 C         138.4291  142.2568  161.2142 C.3     1  UNL1        0.1181
     26 N         138.7745  140.8037  161.3517 N.3     1  UNL1       -0.2696
     27 C         137.6885  139.7920  161.5694 C.3     1  UNL1        0.0722
     28 C         138.0339  138.3388  161.7069 C.3     1  UNL1        0.0174
     29 C         139.4652  137.8972  161.6267 C.3     1  UNL1        0.0031
     30 C         140.5511  138.9088  161.4090 C.3     1  UNL1        0.0204
     31 C         140.2058  140.3621  161.2715 C.3     1  UNL1        0.0725
     32 C         141.9824  138.4673  161.3288 C.3     1  UNL1        0.0277
     33 C         143.0470  139.2395  162.0501 C.ar    1  UNL1       -0.0220
     34 C         143.6870  140.4270  161.3940 C.ar    1  UNL1       -0.0020
     35 C         144.7516  141.1992  162.1153 C.ar    1  UNL1        0.0293
     36 C         145.1764  140.7839  163.4926 C.ar    1  UNL1        0.1401
     37 F         146.2410  141.5560  164.2139 F       1  UNL1       -0.2042
     38 C         144.5365  139.5964  164.1487 C.ar    1  UNL1        0.0293
     39 C         143.4718  138.8242  163.4274 C.ar    1  UNL1       -0.0020
@<TRIPOS>BOND
     1     1     2    1
     2     2     3    1
     3     3     4    1
     4     4     5    1
     5     4    10    1
     6    10    11   am
     7    11    12    2
     8    11    13   am
     9    13    16    1
    10    16    17   ar
    11    17    18   ar
    12    18    21    1
    13    21    22    1
    14    21    23    1
    15    21    24    1
    16    18    19   ar
    17    19    20   ar
    18     4     6    1
    19     6    25    1
    20    25    26    1
    21    26    27    1
    22    27    28    1
    23    28    29    1
    24    29    30    1
    25    30    32    1
    26    32    33    1
    27    33    34   ar
    28    34    35   ar
    29    35    36   ar
    30    36    37    1
    31    36    38   ar
    32    38    39   ar
    33    30    31    1
    34     6     7    1
    35     7     8    1
    36     8     9    2
    37     8     2   am
    38    20    16   ar
    39    31    26    1
    40    39    33   ar
    41    10    14    1
    42    13    15    1
@<TRIPOS>MOLECULE
*****
 39 42 0 0 0
SMALL
GASTEIGER

@<TRIPOS>ATOM
      1 C         137.8875  145.3254  154.9717 C.3     1  UNL1        0.1183
      2 N         138.8659  144.9201  156.0340 N.am    1  UNL1       -0.2425
      3 C         138.9849  143.4792  156.4336 C.3     1  UNL1        0.1183
      4 C         139.9633  143.0738  157.4959 C.3     1  UNL1        0.1146
      5 C         139.3724  141.7362  157.1618 C.3     1  UNL1        0.0252
      6 C         140.8226  144.1093  158.1586 C.3     1  UNL1        0.2040
      7 O         140.7036  145.5502  157.7590 O.3     1  UNL1       -0.4351
      8 C         139.7252  145.9556  156.6967 C.2     1  UNL1        0.4049
      9 O         139.6062  147.3965  156.2971 O.2     1  UNL1       -0.2262
     10 N         140.7364  142.2039  158.4422 N.am    1  UNL1       -0.2867
     11 C         140.0142  141.4016  159.4837 C.2     1  UNL1        0.3059
     12 O         138.5187  141.4693  159.5790 O.2     1  UNL1       -0.2524
     13 N         140.7874  140.5316  160.4299 N.am    1  UNL1       -0.2485
     14 H         141.7179  142.1594  158.3796 H       1  UNL1        0.1510
     15 H         141.7689  140.4872  160.3674 H       1  UNL1        0.1583
     16 C         140.0651  139.7294  161.4714 C.ar    1  UNL1        0.1664
     17 N         139.8079  140.1512  162.8877 N.ar    1  UNL1       -0.2283
     18 C         139.0570  139.0471  163.5712 C.ar    1  UNL1        0.0667
     19 C         138.8502  137.9428  162.5772 C.ar    1  UNL1        0.0528
     20 S         139.4733  138.3645  161.2795 S.2     1  UNL1       -0.0511
     21 C         138.5942  139.0472  164.9980 C.3     1  UNL1        0.0360
     22 C         138.2239  140.4957  164.8778 C.3     1  UNL1        0.0059
     23 C         138.9646  137.5986  165.1182 C.3     1  UNL1        0.0059
     24 C         138.1315  139.0472  166.4248 C.3     1  UNL1        0.0059
     25 C         141.8010  143.7040  159.2209 C.3     1  UNL1        0.1181
     26 N         141.6165  144.1798  160.6314 N.3     1  UNL1       -0.2696
     27 C         140.5250  145.1559  160.9570 C.3     1  UNL1        0.0722
     28 C         140.3405  145.6317  162.3675 C.3     1  UNL1        0.0174
     29 C         141.2475  145.1315  163.4524 C.3     1  UNL1        0.0031
     30 C         142.3390  144.1555  163.1269 C.3     1  UNL1        0.0204
     31 C         142.5235  143.6796  161.7164 C.3     1  UNL1        0.0725
     32 C         143.2461  143.6553  164.2119 C.3     1  UNL1        0.0277
     33 C         143.2026  142.2126  164.6200 C.ar    1  UNL1       -0.0220
     34 C         142.0361  141.6902  165.4053 C.ar    1  UNL1       -0.0020
     35 C         141.9927  140.2475  165.8135 C.ar    1  UNL1        0.0293
     36 C         143.1155  139.3271  165.4364 C.ar    1  UNL1        0.1401
     37 F         143.0720  137.8844  165.8446 F       1  UNL1       -0.2042
     38 C         144.2819  139.8495  164.6512 C.ar    1  UNL1        0.0293
     39 C         144.3254  141.2923  164.2430 C.ar    1  UNL1       -0.0020
@<TRIPOS>BOND
     1     1     2    1
     2     2     3    1
     3     3     4    1
     4     4     5    1
     5     4    10    1
     6    10    11   am
     7    11    12    2
     8    11    13   am
     9    13    16    1
    10    16    17   ar
    11    17    18   ar
    12    18    21    1
    13    21    22    1
    14    21    23    1
    15    21    24    1
    16    18    19   ar
    17    19    20   ar
    18     4     6    1
    19     6    25    1
    20    25    26    1
    21    26    27    1
    22    27    28    1
    23    28    29    1
    24    29    30    1
    25    30    32    1
    26    32    33    1
    27    33    34   ar
    28    34    35   ar
    29    35    36   ar
    30    36    37    1
    31    36    38   ar
    32    38    39   ar
    33    30    31    1
    34     6     7    1
    35     7     8    1
    36     8     9    2
    37     8     2   am
    38    20    16   ar
    39    31    26    1
    40    39    33   ar
    41    10    14    1
    42    13    15    1
