@<TRIPOS>MOLECULE
*****
 41 46 0 0 0
SMALL
GASTEIGER

@<TRIPOS>ATOM
      1 C         144.2539  139.8139  163.4070 C.3     1  UNL1        0.0570
      2 C         143.3790  139.3452  162.2823 C.3     1  UNL1        0.0331
      3 C         142.0945  138.6297  162.5794 C.3     1  UNL1        0.0735
      4 N         141.6849  138.3829  164.0011 N.3     1  UNL1       -0.2710
      5 C         142.5599  138.8516  165.1258 C.3     1  UNL1        0.0735
      6 C         143.8443  139.5671  164.8287 C.3     1  UNL1        0.0331
      7 N         145.5383  140.5293  163.1099 N.3     1  UNL1       -0.2934
      8 H         146.2684  140.0574  163.6434 H       1  UNL1        0.1236
      9 C         145.6659  141.9948  163.4038 C.3     1  UNL1        0.1152
     10 O         140.3564  145.3059  158.7568 O.2     1  UNL1       -0.2707
     11 C         140.9460  145.1096  160.1220 C.2     1  UNL1        0.2718
     12 C         140.3555  145.8205  161.3033 C.3     1  UNL1        0.2898
     13 O         140.9451  145.6242  162.6686 O.3     1  UNL1       -0.4628
     14 C         142.1253  144.7168  162.8524 C.ar    1  UNL1        0.1708
     15 C         142.7149  144.5205  164.2176 C.ar    1  UNL1        0.0411
     16 C         143.8951  143.6131  164.4014 C.ar    1  UNL1        0.0193
     17 C         144.4857  142.9021  163.2200 C.ar    1  UNL1        0.0765
     18 N         143.8961  143.0985  161.8548 N.ar    1  UNL1       -0.2304
     19 C         142.7159  144.0059  161.6710 C.ar    1  UNL1        0.1682
     20 N         142.1262  144.2022  160.3058 N.am    1  UNL1       -0.2639
     21 H         142.5139  143.7356  159.5304 H       1  UNL1        0.1565
     22 C         140.4005  137.6675  164.2982 C.3     1  UNL1        0.0970
     23 C         139.1798  138.4479  164.6863 C.3     1  UNL1        0.1278
     24 N         138.7326  139.6077  163.8466 N.ar    1  UNL1       -0.2791
     25 C         138.0855  139.3644  162.5154 C.ar    1  UNL1        0.2621
     26 O         137.8854  137.9613  162.0240 O.2     1  UNL1       -0.2669
     27 C         137.6384  140.5241  161.6757 C.ar    1  UNL1        0.0609
     28 C         137.8384  141.9272  162.1672 C.ar    1  UNL1        0.0079
     29 C         138.4856  142.1705  163.4983 C.ar    1  UNL1        0.0346
     30 C         138.6856  143.5734  163.9898 C.ar    1  UNL1        0.0078
     31 C         139.3328  143.8167  165.3209 C.ar    1  UNL1        0.0583
     32 C         139.7799  142.6570  166.1606 C.ar    1  UNL1        0.2329
     33 N         139.5798  141.2539  165.6692 N.ar    1  UNL1       -0.1938
     34 C         138.9327  141.0107  164.3380 C.ar    1  UNL1        0.1492
     35 O         140.4270  142.9003  167.4918 O.3     1  UNL1       -0.4187
     36 C         140.8915  141.7412  168.3230 C.ar    1  UNL1        0.2316
     37 C         142.2594  141.1645  168.1079 C.ar    1  UNL1        0.0582
     38 C         142.7239  140.0054  168.9390 C.ar    1  UNL1        0.0064
     39 C         141.8205  139.4230  169.9852 C.ar    1  UNL1        0.0209
     40 C         140.4525  139.9997  170.2003 C.ar    1  UNL1        0.1021
     41 N         139.9881  141.1587  169.3692 N.ar    1  UNL1       -0.2098
@<TRIPOS>BOND
     1    10    11    2
     2    11    12    1
     3    12    13    1
     4    13    14    1
     5    14    15   ar
     6    15    16   ar
     7    16    17   ar
     8    17     9    1
     9     9     7    1
    10     7     1    1
    11     1     2    1
    12     2     3    1
    13     3     4    1
    14     4    22    1
    15    22    23    1
    16    23    24    1
    17    24    25   ar
    18    25    26    2
    19    25    27   ar
    20    27    28   ar
    21    28    29   ar
    22    29    30   ar
    23    30    31   ar
    24    31    32   ar
    25    32    35    1
    26    35    36    1
    27    36    37   ar
    28    37    38   ar
    29    38    39   ar
    30    39    40   ar
    31    40    41   ar
    32    32    33   ar
    33    33    34   ar
    34     4     5    1
    35     5     6    1
    36    17    18   ar
    37    18    19   ar
    38    19    20    1
    39    20    11   am
    40    19    14   ar
    41     6     1    1
    42    34    24   ar
    43    34    29   ar
    44    41    36   ar
    45     7     8    1
    46    20    21    1
@<TRIPOS>MOLECULE
*****
 41 46 0 0 0
SMALL
GASTEIGER

@<TRIPOS>ATOM
      1 C         142.1218  144.6105  163.2321 C.3     1  UNL1        0.0570
      2 C         142.9850  144.0998  162.1167 C.3     1  UNL1        0.0331
      3 C         143.7791  142.8403  162.2993 C.3     1  UNL1        0.0735
      4 N         143.7099  142.0917  163.5972 N.3     1  UNL1       -0.2710
      5 C         142.8467  142.6025  164.7126 C.3     1  UNL1        0.0735
      6 C         142.0527  143.8619  164.5300 C.3     1  UNL1        0.0331
      7 N         141.3278  145.8700  163.0495 N.3     1  UNL1       -0.2934
      8 H         141.1660  146.2536  163.9806 H       1  UNL1        0.1236
      9 C         139.9951  145.8234  162.3627 C.3     1  UNL1        0.1152
     10 O         138.3436  139.6389  157.9159 O.2     1  UNL1       -0.2707
     11 C         138.1943  140.3875  159.2071 C.2     1  UNL1        0.2718
     12 C         137.3451  139.8232  160.3072 C.3     1  UNL1        0.2898
     13 O         137.1957  140.5718  161.5985 O.3     1  UNL1       -0.4628
     14 C         137.8955  141.8847  161.7895 C.ar    1  UNL1        0.1708
     15 C         137.7462  142.6333  163.0808 C.ar    1  UNL1        0.0411
     16 C         138.4460  143.9462  163.2718 C.ar    1  UNL1        0.0193
     17 C         139.2952  144.5105  162.1716 C.ar    1  UNL1        0.0765
     18 N         139.4446  143.7619  160.8804 N.ar    1  UNL1       -0.2304
     19 C         138.7447  142.4490  160.6894 C.ar    1  UNL1        0.1682
     20 N         138.8941  141.7004  159.3981 N.am    1  UNL1       -0.2639
     21 H         139.4515  142.0707  158.6760 H       1  UNL1        0.1565
     22 C         144.5039  140.8323  163.7798 C.3     1  UNL1        0.0970
     23 C         143.8243  139.5776  164.2422 C.3     1  UNL1        0.1278
     24 N         142.6057  139.0767  163.5250 N.ar    1  UNL1       -0.2791
     25 C         142.7306  138.5035  162.1445 C.ar    1  UNL1        0.2621
     26 O         144.0741  138.4312  161.4811 O.2     1  UNL1       -0.2669
     27 C         141.5121  138.0027  161.4273 C.ar    1  UNL1        0.0609
     28 C         140.1687  138.0750  162.0906 C.ar    1  UNL1        0.0079
     29 C         140.0437  138.6482  163.4711 C.ar    1  UNL1        0.0346
     30 C         138.7004  138.7205  164.1344 C.ar    1  UNL1        0.0078
     31 C         138.5755  139.2937  165.5150 C.ar    1  UNL1        0.0583
     32 C         139.7939  139.7946  166.2322 C.ar    1  UNL1        0.2329
     33 N         141.1374  139.7222  165.5688 N.ar    1  UNL1       -0.1938
     34 C         141.2623  139.1491  164.1883 C.ar    1  UNL1        0.1492
     35 O         139.6690  140.3677  167.6127 O.3     1  UNL1       -0.4187
     36 C         140.8992  140.7621  168.3752 C.ar    1  UNL1        0.2316
     37 C         141.5068  142.1179  168.1692 C.ar    1  UNL1        0.0582
     38 C         142.7369  142.5122  168.9317 C.ar    1  UNL1        0.0064
     39 C         143.3594  141.5506  169.9002 C.ar    1  UNL1        0.0209
     40 C         142.7517  140.1947  170.1061 C.ar    1  UNL1        0.1021
     41 N         141.5217  139.8005  169.3436 N.ar    1  UNL1       -0.2098
@<TRIPOS>BOND
     1    10    11    2
     2    11    12    1
     3    12    13    1
     4    13    14    1
     5    14    15   ar
     6    15    16   ar
     7    16    17   ar
     8    17     9    1
     9     9     7    1
    10     7     1    1
    11     1     2    1
    12     2     3    1
    13     3     4    1
    14     4    22    1
    15    22    23    1
    16    23    24    1
    17    24    25   ar
    18    25    26    2
    19    25    27   ar
    20    27    28   ar
    21    28    29   ar
    22    29    30   ar
    23    30    31   ar
    24    31    32   ar
    25    32    35    1
    26    35    36    1
    27    36    37   ar
    28    37    38   ar
    29    38    39   ar
    30    39    40   ar
    31    40    41   ar
    32    32    33   ar
    33    33    34   ar
    34     4     5    1
    35     5     6    1
    36    17    18   ar
    37    18    19   ar
    38    19    20    1
    39    20    11   am
    40    19    14   ar
    41     6     1    1
    42    34    24   ar
    43    34    29   ar
    44    41    36   ar
    45     7     8    1
    46    20    21    1
@<TRIPOS>MOLECULE
*****
 41 46 0 0 0
SMALL
GASTEIGER

@<TRIPOS>ATOM
      1 C         137.9094  139.9044  162.5692 C.3     1  UNL1        0.0570
      2 C         138.0899  140.0508  164.0511 C.3     1  UNL1        0.0331
      3 C         138.0813  141.4142  164.6766 C.3     1  UNL1        0.0735
      4 N         137.8923  142.6311  163.8202 N.3     1  UNL1       -0.2710
      5 C         137.7118  142.4846  162.3382 C.3     1  UNL1        0.0735
      6 C         137.7203  141.1213  161.7128 C.3     1  UNL1        0.0331
      7 N         137.9179  138.5410  161.9438 N.3     1  UNL1       -0.2934
      8 H         137.6977  137.8757  162.6849 H       1  UNL1        0.1236
      9 C         139.1552  138.0362  161.2622 C.3     1  UNL1        0.1152
     10 O         143.8592  138.1498  167.4758 O.2     1  UNL1       -0.2707
     11 C         143.6394  138.3719  166.0087 C.2     1  UNL1        0.2718
     12 C         144.7676  138.8539  165.1458 C.3     1  UNL1        0.2898
     13 O         144.5477  139.0760  163.6787 O.3     1  UNL1       -0.4628
     14 C         143.1996  138.8161  163.0746 C.ar    1  UNL1        0.1708
     15 C         142.9797  139.0381  161.6075 C.ar    1  UNL1        0.0411
     16 C         141.6316  138.7782  161.0034 C.ar    1  UNL1        0.0193
     17 C         140.5033  138.2962  161.8664 C.ar    1  UNL1        0.0765
     18 N         140.7232  138.0741  163.3334 N.ar    1  UNL1       -0.2304
     19 C         142.0714  138.3340  163.9375 C.ar    1  UNL1        0.1682
     20 N         142.2913  138.1119  165.4046 N.am    1  UNL1       -0.2639
     21 H         141.5507  137.7956  165.9710 H       1  UNL1        0.1565
     22 C         137.8837  143.9944  164.4456 C.3     1  UNL1        0.0970
     23 C         139.1651  144.7603  164.5921 C.3     1  UNL1        0.1278
     24 N         140.2633  144.5844  163.5856 N.ar    1  UNL1       -0.2791
     25 C         140.1249  145.1748  162.2137 C.ar    1  UNL1        0.2621
     26 O         138.8882  145.9411  161.8482 O.2     1  UNL1       -0.2669
     27 C         141.2231  144.9989  161.2072 C.ar    1  UNL1        0.0609
     28 C         142.4598  144.2326  161.5727 C.ar    1  UNL1        0.0079
     29 C         142.5982  143.6422  162.9447 C.ar    1  UNL1        0.0346
     30 C         143.8348  142.8760  163.3102 C.ar    1  UNL1        0.0078
     31 C         143.9732  142.2856  164.6821 C.ar    1  UNL1        0.0583
     32 C         142.8750  142.4615  165.6886 C.ar    1  UNL1        0.2329
     33 N         141.6383  143.2278  165.3231 N.ar    1  UNL1       -0.1938
     34 C         141.4999  143.8181  163.9512 C.ar    1  UNL1        0.1492
     35 O         143.0134  141.8711  167.0606 O.3     1  UNL1       -0.4187
     36 C         141.7894  141.5009  167.8447 C.ar    1  UNL1        0.2316
     37 C         141.3761  142.3290  169.0251 C.ar    1  UNL1        0.0582
     38 C         140.1520  141.9588  169.8093 C.ar    1  UNL1        0.0064
     39 C         139.3415  140.7605  169.4130 C.ar    1  UNL1        0.0209
     40 C         139.7549  139.9324  168.2326 C.ar    1  UNL1        0.1021
     41 N         140.9789  140.3026  167.4485 N.ar    1  UNL1       -0.2098
@<TRIPOS>BOND
     1    10    11    2
     2    11    12    1
     3    12    13    1
     4    13    14    1
     5    14    15   ar
     6    15    16   ar
     7    16    17   ar
     8    17     9    1
     9     9     7    1
    10     7     1    1
    11     1     2    1
    12     2     3    1
    13     3     4    1
    14     4    22    1
    15    22    23    1
    16    23    24    1
    17    24    25   ar
    18    25    26    2
    19    25    27   ar
    20    27    28   ar
    21    28    29   ar
    22    29    30   ar
    23    30    31   ar
    24    31    32   ar
    25    32    35    1
    26    35    36    1
    27    36    37   ar
    28    37    38   ar
    29    38    39   ar
    30    39    40   ar
    31    40    41   ar
    32    32    33   ar
    33    33    34   ar
    34     4     5    1
    35     5     6    1
    36    17    18   ar
    37    18    19   ar
    38    19    20    1
    39    20    11   am
    40    19    14   ar
    41     6     1    1
    42    34    24   ar
    43    34    29   ar
    44    41    36   ar
    45     7     8    1
    46    20    21    1
@<TRIPOS>MOLECULE
*****
 41 46 0 0 0
SMALL
GASTEIGER

@<TRIPOS>ATOM
      1 C         143.1637  143.2193  164.2697 C.3     1  UNL1        0.0570
      2 C         142.5851  143.9556  163.0980 C.3     1  UNL1        0.0331
      3 C         141.1232  144.2905  163.0701 C.3     1  UNL1        0.0735
      4 N         140.2399  143.8891  164.2141 N.3     1  UNL1       -0.2710
      5 C         140.8186  143.1528  165.3860 C.3     1  UNL1        0.0735
      6 C         142.2804  142.8179  165.4137 C.3     1  UNL1        0.0331
      7 N         144.6255  142.8844  164.2975 N.3     1  UNL1       -0.2934
      8 H         145.0584  143.3911  163.5252 H       1  UNL1        0.1236
      9 C         145.0702  141.4565  164.1818 C.3     1  UNL1        0.1152
     10 O         143.4810  138.8692  157.0034 O.2     1  UNL1       -0.2707
     11 C         143.2784  138.7893  158.4875 C.2     1  UNL1        0.2718
     12 C         142.3436  137.7671  159.0629 C.3     1  UNL1        0.2898
     13 O         142.1410  137.6872  160.5470 O.3     1  UNL1       -0.4628
     14 C         142.8733  138.6295  161.4557 C.ar    1  UNL1        0.1708
     15 C         142.6707  138.5496  162.9398 C.ar    1  UNL1        0.0411
     16 C         143.4030  139.4919  163.8485 C.ar    1  UNL1        0.0193
     17 C         144.3379  140.5142  163.2731 C.ar    1  UNL1        0.0765
     18 N         144.5405  140.5941  161.7890 N.ar    1  UNL1       -0.2304
     19 C         143.8081  139.6517  160.8803 C.ar    1  UNL1        0.1682
     20 N         144.0107  139.7316  159.3962 N.am    1  UNL1       -0.2639
     21 H         144.6243  140.4025  159.0185 H       1  UNL1        0.1565
     22 C         138.7781  144.2240  164.1864 C.3     1  UNL1        0.0970
     23 C         137.7635  143.1375  163.9865 C.3     1  UNL1        0.1278
     24 N         138.1266  141.9056  163.2114 N.ar    1  UNL1       -0.2791
     25 C         138.2157  141.9601  161.7151 C.ar    1  UNL1        0.2621
     26 O         137.9418  143.2465  160.9937 O.2     1  UNL1       -0.2669
     27 C         138.5788  140.7282  160.9400 C.ar    1  UNL1        0.0609
     28 C         138.8527  139.4418  161.6614 C.ar    1  UNL1        0.0079
     29 C         138.7636  139.3874  163.1577 C.ar    1  UNL1        0.0346
     30 C         139.0374  138.1011  163.8791 C.ar    1  UNL1        0.0078
     31 C         138.9483  138.0466  165.3754 C.ar    1  UNL1        0.0583
     32 C         138.5852  139.2785  166.1504 C.ar    1  UNL1        0.2329
     33 N         138.3113  140.5648  165.4291 N.ar    1  UNL1       -0.1938
     34 C         138.4005  140.6193  163.9328 C.ar    1  UNL1        0.1492
     35 O         138.4960  139.2240  167.6468 O.3     1  UNL1       -0.4187
     36 C         139.6127  139.7721  168.4851 C.ar    1  UNL1        0.2316
     37 C         140.9242  140.1257  167.8489 C.ar    1  UNL1        0.0582
     38 C         142.0409  140.6738  168.6873 C.ar    1  UNL1        0.0064
     39 C         141.8459  140.8683  170.1618 C.ar    1  UNL1        0.0209
     40 C         140.5343  140.5147  170.7979 C.ar    1  UNL1        0.1021
     41 N         139.4177  139.9666  169.9596 N.ar    1  UNL1       -0.2098
@<TRIPOS>BOND
     1    10    11    2
     2    11    12    1
     3    12    13    1
     4    13    14    1
     5    14    15   ar
     6    15    16   ar
     7    16    17   ar
     8    17     9    1
     9     9     7    1
    10     7     1    1
    11     1     2    1
    12     2     3    1
    13     3     4    1
    14     4    22    1
    15    22    23    1
    16    23    24    1
    17    24    25   ar
    18    25    26    2
    19    25    27   ar
    20    27    28   ar
    21    28    29   ar
    22    29    30   ar
    23    30    31   ar
    24    31    32   ar
    25    32    35    1
    26    35    36    1
    27    36    37   ar
    28    37    38   ar
    29    38    39   ar
    30    39    40   ar
    31    40    41   ar
    32    32    33   ar
    33    33    34   ar
    34     4     5    1
    35     5     6    1
    36    17    18   ar
    37    18    19   ar
    38    19    20    1
    39    20    11   am
    40    19    14   ar
    41     6     1    1
    42    34    24   ar
    43    34    29   ar
    44    41    36   ar
    45     7     8    1
    46    20    21    1
@<TRIPOS>MOLECULE
*****
 41 46 0 0 0
SMALL
GASTEIGER

@<TRIPOS>ATOM
      1 C         138.1696  142.6539  164.4820 C.3     1  UNL1        0.0570
      2 C         138.9341  141.6882  165.3381 C.3     1  UNL1        0.0331
      3 C         139.0487  140.2499  164.9276 C.3     1  UNL1        0.0735
      4 N         138.3989  139.7775  163.6608 N.3     1  UNL1       -0.2710
      5 C         137.6344  140.7433  162.8047 C.3     1  UNL1        0.0735
      6 C         137.5198  142.1814  163.2153 C.3     1  UNL1        0.0331
      7 N         138.0550  144.0920  164.8926 N.3     1  UNL1       -0.2934
      8 H         137.2284  144.4662  164.4267 H       1  UNL1        0.1236
      9 C         139.1792  145.0443  164.6108 C.3     1  UNL1        0.1152
     10 O         146.0801  141.8372  162.9249 O.2     1  UNL1       -0.2707
     11 C         144.8342  142.5458  162.4827 C.2     1  UNL1        0.2718
     12 C         144.6426  142.8941  161.0363 C.3     1  UNL1        0.2898
     13 O         143.3967  143.6027  160.5941 O.3     1  UNL1       -0.4628
     14 C         142.3424  143.9631  161.5983 C.ar    1  UNL1        0.1708
     15 C         141.0965  144.6718  161.1561 C.ar    1  UNL1        0.0411
     16 C         140.0421  145.0322  162.1602 C.ar    1  UNL1        0.0193
     17 C         140.2336  144.6839  163.6067 C.ar    1  UNL1        0.0765
     18 N         141.4795  143.9753  164.0489 N.ar    1  UNL1       -0.2304
     19 C         142.5339  143.6149  163.0446 C.ar    1  UNL1        0.1682
     20 N         143.7798  142.9062  163.4869 N.am    1  UNL1       -0.2639
     21 H         143.9055  142.6777  164.4362 H       1  UNL1        0.1565
     22 C         138.5136  138.3394  163.2503 C.3     1  UNL1        0.0970
     23 C         139.7649  137.5702  163.5542 C.3     1  UNL1        0.1278
     24 N         141.0679  137.9833  162.9365 N.ar    1  UNL1       -0.2791
     25 C         141.2193  137.9981  161.4442 C.ar    1  UNL1        0.2621
     26 O         140.0676  137.5996  160.5696 O.2     1  UNL1       -0.2669
     27 C         142.5222  138.4112  160.8266 C.ar    1  UNL1        0.0609
     28 C         143.6740  138.8097  161.7012 C.ar    1  UNL1        0.0079
     29 C         143.5226  138.7949  163.1935 C.ar    1  UNL1        0.0346
     30 C         144.6742  139.1934  164.0681 C.ar    1  UNL1        0.0078
     31 C         144.5229  139.1787  165.5603 C.ar    1  UNL1        0.0583
     32 C         143.2199  138.7655  166.1780 C.ar    1  UNL1        0.2329
     33 N         142.0682  138.3671  165.3034 N.ar    1  UNL1       -0.1938
     34 C         142.2196  138.3818  163.8111 C.ar    1  UNL1        0.1492
     35 O         143.0686  138.7508  167.6703 O.3     1  UNL1       -0.4187
     36 C         142.3007  139.8412  168.3570 C.ar    1  UNL1        0.2316
     37 C         140.8026  139.8626  168.2863 C.ar    1  UNL1        0.0582
     38 C         140.0348  140.9530  168.9731 C.ar    1  UNL1        0.0064
     39 C         140.7652  142.0220  169.7305 C.ar    1  UNL1        0.0209
     40 C         142.2634  142.0006  169.8012 C.ar    1  UNL1        0.1021
     41 N         143.0312  140.9102  169.1145 N.ar    1  UNL1       -0.2098
@<TRIPOS>BOND
     1    10    11    2
     2    11    12    1
     3    12    13    1
     4    13    14    1
     5    14    15   ar
     6    15    16   ar
     7    16    17   ar
     8    17     9    1
     9     9     7    1
    10     7     1    1
    11     1     2    1
    12     2     3    1
    13     3     4    1
    14     4    22    1
    15    22    23    1
    16    23    24    1
    17    24    25   ar
    18    25    26    2
    19    25    27   ar
    20    27    28   ar
    21    28    29   ar
    22    29    30   ar
    23    30    31   ar
    24    31    32   ar
    25    32    35    1
    26    35    36    1
    27    36    37   ar
    28    37    38   ar
    29    38    39   ar
    30    39    40   ar
    31    40    41   ar
    32    32    33   ar
    33    33    34   ar
    34     4     5    1
    35     5     6    1
    36    17    18   ar
    37    18    19   ar
    38    19    20    1
    39    20    11   am
    40    19    14   ar
    41     6     1    1
    42    34    24   ar
    43    34    29   ar
    44    41    36   ar
    45     7     8    1
    46    20    21    1
@<TRIPOS>MOLECULE
*****
 41 46 0 0 0
SMALL
GASTEIGER

@<TRIPOS>ATOM
      1 C         138.3586  140.2120  165.0715 C.3     1  UNL1        0.0570
      2 C         139.1783  141.2126  165.8309 C.3     1  UNL1        0.0331
      3 C         139.3705  142.5956  165.2825 C.3     1  UNL1        0.0735
      4 N         138.7429  142.9778  163.9749 N.3     1  UNL1       -0.2710
      5 C         137.9231  141.9770  163.2155 C.3     1  UNL1        0.0735
      6 C         137.7309  140.5942  163.7639 C.3     1  UNL1        0.0331
      7 N         138.1664  138.8291  165.6199 N.3     1  UNL1       -0.2934
      8 H         138.3620  138.8790  166.6197 H       1  UNL1        0.1236
      9 C         138.9747  137.6880  165.0770 C.3     1  UNL1        0.1152
     10 O         143.1435  138.2269  158.5134 O.2     1  UNL1       -0.2707
     11 C         143.0572  138.3141  160.0084 C.2     1  UNL1        0.2718
     12 C         144.2743  138.6683  160.8105 C.3     1  UNL1        0.2898
     13 O         144.1880  138.7555  162.3055 O.3     1  UNL1       -0.4628
     14 C         142.8847  138.4886  162.9983 C.ar    1  UNL1        0.1708
     15 C         142.7984  138.5758  164.4933 C.ar    1  UNL1        0.0411
     16 C         141.4951  138.3090  165.1862 C.ar    1  UNL1        0.0193
     17 C         140.2780  137.9548  164.3841 C.ar    1  UNL1        0.0765
     18 N         140.3643  137.8676  162.8891 N.ar    1  UNL1       -0.2304
     19 C         141.6677  138.1345  162.1963 C.ar    1  UNL1        0.1682
     20 N         141.7539  138.0473  160.7013 N.am    1  UNL1       -0.2639
     21 H         140.9551  137.8149  160.1748 H       1  UNL1        0.1565
     22 C         138.9350  144.3606  163.4265 C.3     1  UNL1        0.0970
     23 C         140.3105  144.9545  163.3548 C.3     1  UNL1        0.1278
     24 N         141.3887  144.2580  162.5786 N.ar    1  UNL1       -0.2791
     25 C         141.3615  144.2721  161.0789 C.ar    1  UNL1        0.2621
     26 O         140.2562  144.9828  160.3554 O.2     1  UNL1       -0.2669
     27 C         142.4396  143.5756  160.3026 C.ar    1  UNL1        0.0609
     28 C         143.5449  142.8649  161.0261 C.ar    1  UNL1        0.0079
     29 C         143.5720  142.8508  162.5258 C.ar    1  UNL1        0.0346
     30 C         144.6772  142.1401  163.2493 C.ar    1  UNL1        0.0078
     31 C         144.7044  142.1260  164.7489 C.ar    1  UNL1        0.0583
     32 C         143.6263  142.8225  165.5252 C.ar    1  UNL1        0.2329
     33 N         142.5210  143.5332  164.8017 N.ar    1  UNL1       -0.1938
     34 C         142.4939  143.5473  163.3020 C.ar    1  UNL1        0.1492
     35 O         143.6534  142.8084  167.0249 O.3     1  UNL1       -0.4187
     36 C         142.6338  142.0139  167.7860 C.ar    1  UNL1        0.2316
     37 C         142.7552  140.5212  167.8688 C.ar    1  UNL1        0.0582
     38 C         141.7356  139.7268  168.6299 C.ar    1  UNL1        0.0064
     39 C         140.5945  140.4252  169.3082 C.ar    1  UNL1        0.0209
     40 C         140.4730  141.9180  169.2254 C.ar    1  UNL1        0.1021
     41 N         141.4927  142.7123  168.4643 N.ar    1  UNL1       -0.2098
@<TRIPOS>BOND
     1    10    11    2
     2    11    12    1
     3    12    13    1
     4    13    14    1
     5    14    15   ar
     6    15    16   ar
     7    16    17   ar
     8    17     9    1
     9     9     7    1
    10     7     1    1
    11     1     2    1
    12     2     3    1
    13     3     4    1
    14     4    22    1
    15    22    23    1
    16    23    24    1
    17    24    25   ar
    18    25    26    2
    19    25    27   ar
    20    27    28   ar
    21    28    29   ar
    22    29    30   ar
    23    30    31   ar
    24    31    32   ar
    25    32    35    1
    26    35    36    1
    27    36    37   ar
    28    37    38   ar
    29    38    39   ar
    30    39    40   ar
    31    40    41   ar
    32    32    33   ar
    33    33    34   ar
    34     4     5    1
    35     5     6    1
    36    17    18   ar
    37    18    19   ar
    38    19    20    1
    39    20    11   am
    40    19    14   ar
    41     6     1    1
    42    34    24   ar
    43    34    29   ar
    44    41    36   ar
    45     7     8    1
    46    20    21    1
@<TRIPOS>MOLECULE
*****
 41 46 0 0 0
SMALL
GASTEIGER

@<TRIPOS>ATOM
      1 C         140.9423  138.3443  160.9817 C.3     1  UNL1        0.0570
      2 C         141.0250  137.7316  162.3484 C.3     1  UNL1        0.0331
      3 C         142.2211  137.9912  163.2156 C.3     1  UNL1        0.0735
      4 N         143.3345  138.8635  162.7161 N.3     1  UNL1       -0.2710
      5 C         143.2518  139.4762  161.3494 C.3     1  UNL1        0.0735
      6 C         142.0557  139.2166  160.4822 C.3     1  UNL1        0.0331
      7 N         139.7463  138.0847  160.1146 N.3     1  UNL1       -0.2934
      8 H         140.0899  137.6352  159.2659 H       1  UNL1        0.1236
      9 C         138.8745  139.2248  159.6783 C.3     1  UNL1        0.1152
     10 O         139.8058  146.6724  161.7795 O.2     1  UNL1       -0.2707
     11 C         139.2080  145.3186  162.0242 C.2     1  UNL1        0.2718
     12 C         138.3228  145.0936  163.2140 C.3     1  UNL1        0.2898
     13 O         137.7250  143.7398  163.4587 O.3     1  UNL1       -0.4628
     14 C         138.0124  142.6111  162.5136 C.ar    1  UNL1        0.1708
     15 C         137.4145  141.2573  162.7584 C.ar    1  UNL1        0.0411
     16 C         137.7019  140.1285  161.8133 C.ar    1  UNL1        0.0193
     17 C         138.5872  140.3535  160.6234 C.ar    1  UNL1        0.0765
     18 N         139.1850  141.7073  160.3786 N.ar    1  UNL1       -0.2304
     19 C         138.8976  142.8361  161.3238 C.ar    1  UNL1        0.1682
     20 N         139.4954  144.1899  161.0791 N.am    1  UNL1       -0.2639
     21 H         140.0764  144.3376  160.2981 H       1  UNL1        0.1565
     22 C         144.5306  139.1232  163.5832 C.3     1  UNL1        0.0970
     23 C         144.5056  140.2445  164.5792 C.3     1  UNL1        0.1278
     24 N         143.9425  141.5797  164.1914 N.ar    1  UNL1       -0.2791
     25 C         144.6597  142.4334  163.1881 C.ar    1  UNL1        0.2621
     26 O         145.9401  141.9520  162.5725 O.2     1  UNL1       -0.2669
     27 C         144.0966  143.7685  162.8004 C.ar    1  UNL1        0.0609
     28 C         142.8162  144.2499  163.4159 C.ar    1  UNL1        0.0079
     29 C         142.0990  143.3962  164.4193 C.ar    1  UNL1        0.0346
     30 C         140.8186  143.8775  165.0349 C.ar    1  UNL1        0.0078
     31 C         140.1014  143.0238  166.0382 C.ar    1  UNL1        0.0583
     32 C         140.6645  141.6887  166.4259 C.ar    1  UNL1        0.2329
     33 N         141.9449  141.2073  165.8104 N.ar    1  UNL1       -0.1938
     34 C         142.6621  142.0610  164.8070 C.ar    1  UNL1        0.1492
     35 O         139.9472  140.8350  167.4293 O.3     1  UNL1       -0.4187
     36 C         139.2065  139.6106  166.9793 C.ar    1  UNL1        0.2316
     37 C         139.5913  138.9294  165.6995 C.ar    1  UNL1        0.0582
     38 C         138.8506  137.7050  165.2494 C.ar    1  UNL1        0.0064
     39 C         137.7252  137.1620  166.0793 C.ar    1  UNL1        0.0209
     40 C         137.3405  137.8433  167.3591 C.ar    1  UNL1        0.1021
     41 N         138.0812  139.0675  167.8091 N.ar    1  UNL1       -0.2098
@<TRIPOS>BOND
     1    10    11    2
     2    11    12    1
     3    12    13    1
     4    13    14    1
     5    14    15   ar
     6    15    16   ar
     7    16    17   ar
     8    17     9    1
     9     9     7    1
    10     7     1    1
    11     1     2    1
    12     2     3    1
    13     3     4    1
    14     4    22    1
    15    22    23    1
    16    23    24    1
    17    24    25   ar
    18    25    26    2
    19    25    27   ar
    20    27    28   ar
    21    28    29   ar
    22    29    30   ar
    23    30    31   ar
    24    31    32   ar
    25    32    35    1
    26    35    36    1
    27    36    37   ar
    28    37    38   ar
    29    38    39   ar
    30    39    40   ar
    31    40    41   ar
    32    32    33   ar
    33    33    34   ar
    34     4     5    1
    35     5     6    1
    36    17    18   ar
    37    18    19   ar
    38    19    20    1
    39    20    11   am
    40    19    14   ar
    41     6     1    1
    42    34    24   ar
    43    34    29   ar
    44    41    36   ar
    45     7     8    1
    46    20    21    1
@<TRIPOS>MOLECULE
*****
 41 46 0 0 0
SMALL
GASTEIGER

@<TRIPOS>ATOM
      1 C         139.9230  138.2581  162.0919 C.3     1  UNL1        0.0570
      2 C         140.1947  138.3114  163.5661 C.3     1  UNL1        0.0331
      3 C         141.5801  138.6002  164.0635 C.3     1  UNL1        0.0735
      4 N         142.6938  138.8357  163.0866 N.3     1  UNL1       -0.2710
      5 C         142.4221  138.7825  161.6123 C.3     1  UNL1        0.0735
      6 C         141.0367  138.4937  161.1150 C.3     1  UNL1        0.0331
      7 N         138.5377  137.9694  161.5945 N.3     1  UNL1       -0.2934
      8 H         138.6236  137.2313  160.8958 H       1  UNL1        0.1236
      9 C         137.7214  139.0627  160.9714 C.3     1  UNL1        0.1152
     10 O         141.6533  145.5371  159.1348 O.2     1  UNL1       -0.2707
     11 C         140.6802  144.8150  160.0190 C.2     1  UNL1        0.2718
     12 C         140.0447  145.5288  161.1750 C.3     1  UNL1        0.2898
     13 O         139.0717  144.8067  162.0591 O.3     1  UNL1       -0.4628
     14 C         138.7341  143.3707  161.7872 C.ar    1  UNL1        0.1708
     15 C         137.7610  142.6486  162.6713 C.ar    1  UNL1        0.0411
     16 C         137.4234  141.2126  162.3994 C.ar    1  UNL1        0.0193
     17 C         138.0590  140.4987  161.2433 C.ar    1  UNL1        0.0765
     18 N         139.0320  141.2208  160.3592 N.ar    1  UNL1       -0.2304
     19 C         139.3696  142.6569  160.6312 C.ar    1  UNL1        0.1682
     20 N         140.3427  143.3790  159.7470 N.am    1  UNL1       -0.2639
     21 H         140.7598  142.9104  158.9883 H       1  UNL1        0.1565
     22 C         144.0791  139.1245  163.5839 C.3     1  UNL1        0.0970
     23 C         144.3290  140.3189  164.4563 C.3     1  UNL1        0.1278
     24 N         143.8966  141.6820  164.0035 N.ar    1  UNL1       -0.2791
     25 C         144.7377  142.4499  163.0274 C.ar    1  UNL1        0.2621
     26 O         146.0112  141.8546  162.5040 O.2     1  UNL1       -0.2669
     27 C         144.3053  143.8130  162.5746 C.ar    1  UNL1        0.0609
     28 C         143.0318  144.4082  163.0980 C.ar    1  UNL1        0.0079
     29 C         142.1907  143.6404  164.0741 C.ar    1  UNL1        0.0346
     30 C         140.9172  144.2356  164.5975 C.ar    1  UNL1        0.0078
     31 C         140.0761  143.4677  165.5737 C.ar    1  UNL1        0.0583
     32 C         140.5084  142.1046  166.0264 C.ar    1  UNL1        0.2329
     33 N         141.7820  141.5094  165.5031 N.ar    1  UNL1       -0.1938
     34 C         142.6231  142.2772  164.5269 C.ar    1  UNL1        0.1492
     35 O         139.6673  141.3368  167.0026 O.3     1  UNL1       -0.4187
     36 C         140.0803  141.2492  168.4420 C.ar    1  UNL1        0.2316
     37 C         140.7321  142.4246  169.1081 C.ar    1  UNL1        0.0582
     38 C         141.1450  142.3370  170.5475 C.ar    1  UNL1        0.0064
     39 C         140.9061  141.0741  171.3208 C.ar    1  UNL1        0.0209
     40 C         140.2542  139.8988  170.6547 C.ar    1  UNL1        0.1021
     41 N         139.8413  139.9863  169.2153 N.ar    1  UNL1       -0.2098
@<TRIPOS>BOND
     1    10    11    2
     2    11    12    1
     3    12    13    1
     4    13    14    1
     5    14    15   ar
     6    15    16   ar
     7    16    17   ar
     8    17     9    1
     9     9     7    1
    10     7     1    1
    11     1     2    1
    12     2     3    1
    13     3     4    1
    14     4    22    1
    15    22    23    1
    16    23    24    1
    17    24    25   ar
    18    25    26    2
    19    25    27   ar
    20    27    28   ar
    21    28    29   ar
    22    29    30   ar
    23    30    31   ar
    24    31    32   ar
    25    32    35    1
    26    35    36    1
    27    36    37   ar
    28    37    38   ar
    29    38    39   ar
    30    39    40   ar
    31    40    41   ar
    32    32    33   ar
    33    33    34   ar
    34     4     5    1
    35     5     6    1
    36    17    18   ar
    37    18    19   ar
    38    19    20    1
    39    20    11   am
    40    19    14   ar
    41     6     1    1
    42    34    24   ar
    43    34    29   ar
    44    41    36   ar
    45     7     8    1
    46    20    21    1
@<TRIPOS>MOLECULE
*****
 41 46 0 0 0
SMALL
GASTEIGER

@<TRIPOS>ATOM
      1 C         141.2472  144.5898  163.6740 C.3     1  UNL1        0.0570
      2 C         141.5518  144.6866  162.2085 C.3     1  UNL1        0.0331
      3 C         142.7204  143.9414  161.6345 C.3     1  UNL1        0.0735
      4 N         143.5842  143.0996  162.5261 N.3     1  UNL1       -0.2710
      5 C         143.2796  143.0029  163.9917 C.3     1  UNL1        0.0735
      6 C         142.1111  143.7480  164.5656 C.3     1  UNL1        0.0331
      7 N         140.0788  145.3350  164.2479 N.3     1  UNL1       -0.2934
      8 H         140.3985  145.7579  165.1193 H       1  UNL1        0.1236
      9 C         138.8056  144.6065  164.5618 C.3     1  UNL1        0.1152
     10 O         137.7078  139.8798  158.4623 O.2     1  UNL1       -0.2707
     11 C         137.8405  140.0805  159.9429 C.2     1  UNL1        0.2718
     12 C         137.7399  138.9064  160.8709 C.3     1  UNL1        0.2898
     13 O         137.8726  139.1071  162.3515 O.3     1  UNL1       -0.4628
     14 C         138.1059  140.4819  162.9040 C.ar    1  UNL1        0.1708
     15 C         138.2385  140.6826  164.3846 C.ar    1  UNL1        0.0411
     16 C         138.4718  142.0574  164.9372 C.ar    1  UNL1        0.0193
     17 C         138.5723  143.2317  164.0092 C.ar    1  UNL1        0.0765
     18 N         138.4397  143.0310  162.5286 N.ar    1  UNL1       -0.2304
     19 C         138.2064  141.6561  161.9760 C.ar    1  UNL1        0.1682
     20 N         138.0737  141.4554  160.4955 N.am    1  UNL1       -0.2639
     21 H         138.1397  142.2260  159.8864 H       1  UNL1        0.1565
     22 C         144.7527  142.3545  161.9522 C.3     1  UNL1        0.0970
     23 C         144.8306  140.8627  162.0876 C.3     1  UNL1        0.1278
     24 N         143.6620  140.0112  161.6883 N.ar    1  UNL1       -0.2791
     25 C         143.2150  139.9747  160.2569 C.ar    1  UNL1        0.2621
     26 O         143.9368  140.7895  159.2248 O.2     1  UNL1       -0.2669
     27 C         142.0464  139.1233  159.8576 C.ar    1  UNL1        0.0609
     28 C         141.3247  138.3084  160.8897 C.ar    1  UNL1        0.0079
     29 C         141.7716  138.3450  162.3211 C.ar    1  UNL1        0.0346
     30 C         141.0499  137.5302  163.3532 C.ar    1  UNL1        0.0078
     31 C         141.4969  137.5668  164.7846 C.ar    1  UNL1        0.0583
     32 C         142.6655  138.4182  165.1839 C.ar    1  UNL1        0.2329
     33 N         143.3872  139.2330  164.1518 N.ar    1  UNL1       -0.1938
     34 C         142.9403  139.1964  162.7204 C.ar    1  UNL1        0.1492
     35 O         143.1124  138.4547  166.6153 O.3     1  UNL1       -0.4187
     36 C         142.5388  139.4743  167.5543 C.ar    1  UNL1        0.2316
     37 C         141.6218  140.5411  167.0339 C.ar    1  UNL1        0.0582
     38 C         141.0482  141.5606  167.9729 C.ar    1  UNL1        0.0064
     39 C         141.3917  141.5133  169.4323 C.ar    1  UNL1        0.0209
     40 C         142.3089  140.4464  169.9526 C.ar    1  UNL1        0.1021
     41 N         142.8824  139.4270  169.0137 N.ar    1  UNL1       -0.2098
@<TRIPOS>BOND
     1    10    11    2
     2    11    12    1
     3    12    13    1
     4    13    14    1
     5    14    15   ar
     6    15    16   ar
     7    16    17   ar
     8    17     9    1
     9     9     7    1
    10     7     1    1
    11     1     2    1
    12     2     3    1
    13     3     4    1
    14     4    22    1
    15    22    23    1
    16    23    24    1
    17    24    25   ar
    18    25    26    2
    19    25    27   ar
    20    27    28   ar
    21    28    29   ar
    22    29    30   ar
    23    30    31   ar
    24    31    32   ar
    25    32    35    1
    26    35    36    1
    27    36    37   ar
    28    37    38   ar
    29    38    39   ar
    30    39    40   ar
    31    40    41   ar
    32    32    33   ar
    33    33    34   ar
    34     4     5    1
    35     5     6    1
    36    17    18   ar
    37    18    19   ar
    38    19    20    1
    39    20    11   am
    40    19    14   ar
    41     6     1    1
    42    34    24   ar
    43    34    29   ar
    44    41    36   ar
    45     7     8    1
    46    20    21    1
