@<TRIPOS>MOLECULE
*****
 30 33 0 0 0
SMALL
GASTEIGER

@<TRIPOS>ATOM
      1 C         139.5002  139.0430  162.6863 C.3     1  UNL1        0.0642
      2 C         139.0913  138.4301  161.3797 C.3     1  UNL1        0.0178
      3 C         138.5517  137.8811  162.6671 C.3     1  UNL1        0.0178
      4 N         139.5905  139.2812  164.1645 N.3     1  UNL1       -0.2712
      5 C         138.3716  139.1270  165.0249 C.3     1  UNL1        0.0897
      6 C         138.4620  139.3651  166.5031 C.3     1  UNL1        0.0899
      7 N         139.7714  139.7575  167.1209 N.3     1  UNL1       -0.2665
      8 C         140.9903  139.9116  166.2605 C.3     1  UNL1        0.0899
      9 C         140.8999  139.6735  164.7823 C.3     1  UNL1        0.0897
     10 C         139.8618  139.9956  168.5992 C.3     1  UNL1        0.0992
     11 C         140.8337  141.0028  169.1385 C.ar    1  UNL1       -0.0061
     12 C         140.3949  142.4180  169.3722 C.ar    1  UNL1       -0.0029
     13 C         141.3669  143.4252  169.9116 C.ar    1  UNL1       -0.0003
     14 C         142.7775  143.0172  170.2173 C.ar    1  UNL1       -0.0000
     15 C         143.2163  141.6019  169.9836 C.ar    1  UNL1       -0.0003
     16 C         142.2444  140.5948  169.4443 C.ar    1  UNL1       -0.0029
     17 C         140.4172  140.1223  162.1921 C.3     1  UNL1        0.1128
     18 C         139.7741  141.8158  160.3298 C.2     1  UNL1        0.2294
     19 O         140.2498  140.8490  159.2862 O.2     1  UNL1       -0.2745
     20 N         139.8578  141.4525  161.7827 N.am    1  UNL1       -0.2547
     21 C         139.3821  142.4194  162.8261 C.ar    1  UNL1        0.0878
     22 C         140.3423  143.3973  163.4359 C.ar    1  UNL1        0.0180
     23 C         139.8665  144.3642  164.4794 C.ar    1  UNL1        0.0015
     24 C         138.4306  144.3531  164.9131 C.ar    1  UNL1        0.0032
     25 C         137.4705  143.3753  164.3033 C.ar    1  UNL1        0.0379
     26 C         137.9462  142.4084  163.2598 C.ar    1  UNL1        0.1472
     27 O         136.9860  141.4305  162.6501 O.3     1  UNL1       -0.5042
     28 H         136.0891  141.4237  162.9210 H       1  UNL1        0.2922
     29 C         140.1343  144.3098  159.6971 C.3     1  UNL1        0.0101
     30 C         139.2146  143.1460  159.9203 C.3     1  UNL1        0.0856
@<TRIPOS>BOND
     1    29    30    1
     2    30    18    1
     3    18    19    2
     4    18    20   am
     5    20    17    1
     6    17     1    1
     7     1     4    1
     8     4     5    1
     9     5     6    1
    10     6     7    1
    11     7    10    1
    12    10    11    1
    13    11    12   ar
    14    12    13   ar
    15    13    14   ar
    16    14    15   ar
    17    15    16   ar
    18     7     8    1
    19     8     9    1
    20     1     2    1
    21     2     3    1
    22    20    21    1
    23    21    22   ar
    24    22    23   ar
    25    23    24   ar
    26    24    25   ar
    27    25    26   ar
    28    26    27    1
    29     3     1    1
    30    26    21   ar
    31     9     4    1
    32    16    11   ar
    33    27    28    1
@<TRIPOS>MOLECULE
*****
 30 33 0 0 0
SMALL
GASTEIGER

@<TRIPOS>ATOM
      1 C         139.3129  140.5007  161.2037 C.3     1  UNL1        0.0642
      2 C         138.8700  140.4051  159.7738 C.3     1  UNL1        0.0178
      3 C         138.1614  139.6137  160.8330 C.3     1  UNL1        0.0178
      4 N         139.3619  140.2591  162.6834 N.3     1  UNL1       -0.2712
      5 C         138.2175  140.6900  163.5520 C.3     1  UNL1        0.0897
      6 C         138.2666  140.4485  165.0316 C.3     1  UNL1        0.0899
      7 N         139.4601  139.7760  165.6425 N.3     1  UNL1       -0.2665
      8 C         140.6045  139.3450  164.7739 C.3     1  UNL1        0.0899
      9 C         140.5554  139.5866  163.2944 C.3     1  UNL1        0.0897
     10 C         139.5091  139.5344  167.1222 C.3     1  UNL1        0.0992
     11 C         139.7707  140.6754  168.0601 C.ar    1  UNL1       -0.0061
     12 C         139.4003  140.5555  169.5087 C.ar    1  UNL1       -0.0029
     13 C         139.6619  141.6965  170.4467 C.ar    1  UNL1       -0.0003
     14 C         140.2939  142.9573  169.9360 C.ar    1  UNL1       -0.0000
     15 C         140.6643  143.0772  168.4874 C.ar    1  UNL1       -0.0003
     16 C         140.4027  141.9363  167.5495 C.ar    1  UNL1       -0.0029
     17 C         140.4473  141.4715  161.0607 C.3     1  UNL1        0.1128
     18 C         139.2228  143.6763  161.6850 C.2     1  UNL1        0.2294
     19 O         138.0600  143.2734  160.8273 O.2     1  UNL1       -0.2745
     20 N         140.4165  142.7754  161.8017 N.am    1  UNL1       -0.2547
     21 C         141.5792  143.1784  162.6593 C.ar    1  UNL1        0.0878
     22 C         141.6072  142.8004  164.1107 C.ar    1  UNL1        0.0180
     23 C         142.7701  143.2034  164.9684 C.ar    1  UNL1        0.0015
     24 C         143.9048  143.9843  164.3746 C.ar    1  UNL1        0.0032
     25 C         143.8768  144.3622  162.9234 C.ar    1  UNL1        0.0379
     26 C         142.7140  143.9593  162.0657 C.ar    1  UNL1        0.1472
     27 O         142.6860  144.3373  160.6144 O.3     1  UNL1       -0.5042
     28 H         143.3949  144.8251  160.2436 H       1  UNL1        0.2922
     29 C         139.6698  146.2347  161.7566 C.3     1  UNL1        0.0101
     30 C         139.1920  144.9802  162.4260 C.3     1  UNL1        0.0856
@<TRIPOS>BOND
     1    29    30    1
     2    30    18    1
     3    18    19    2
     4    18    20   am
     5    20    17    1
     6    17     1    1
     7     1     4    1
     8     4     5    1
     9     5     6    1
    10     6     7    1
    11     7    10    1
    12    10    11    1
    13    11    12   ar
    14    12    13   ar
    15    13    14   ar
    16    14    15   ar
    17    15    16   ar
    18     7     8    1
    19     8     9    1
    20     1     2    1
    21     2     3    1
    22    20    21    1
    23    21    22   ar
    24    22    23   ar
    25    23    24   ar
    26    24    25   ar
    27    25    26   ar
    28    26    27    1
    29     3     1    1
    30    26    21   ar
    31     9     4    1
    32    16    11   ar
    33    27    28    1
@<TRIPOS>MOLECULE
*****
 30 33 0 0 0
SMALL
GASTEIGER

@<TRIPOS>ATOM
      1 C         140.1809  139.1464  162.2413 C.3     1  UNL1        0.0642
      2 C         140.6358  138.5263  160.9534 C.3     1  UNL1        0.0178
      3 C         140.9423  137.8541  162.2589 C.3     1  UNL1        0.0178
      4 N         139.9642  139.3412  163.7127 N.3     1  UNL1       -0.2712
      5 C         141.1373  139.3625  164.6472 C.3     1  UNL1        0.0897
      6 C         140.9206  139.5573  166.1186 C.3     1  UNL1        0.0899
      7 N         139.5308  139.7309  166.6555 N.3     1  UNL1       -0.2665
      8 C         138.3577  139.7097  165.7211 C.3     1  UNL1        0.0899
      9 C         138.5744  139.5148  164.2497 C.3     1  UNL1        0.0897
     10 C         139.3142  139.9257  168.1270 C.3     1  UNL1        0.0992
     11 C         140.3112  140.7016  168.9356 C.ar    1  UNL1       -0.0061
     12 C         141.2229  139.9869  169.8885 C.ar    1  UNL1       -0.0029
     13 C         142.2200  140.7629  170.6971 C.ar    1  UNL1       -0.0003
     14 C         142.3053  142.2535  170.5529 C.ar    1  UNL1       -0.0000
     15 C         141.3936  142.9682  169.6000 C.ar    1  UNL1       -0.0003
     16 C         140.3965  142.1923  168.7914 C.ar    1  UNL1       -0.0029
     17 C         139.4946  140.3710  161.7127 C.3     1  UNL1        0.1128
     18 C         141.2407  142.1637  161.0142 C.2     1  UNL1        0.2294
     19 O         141.7406  141.2548  159.9308 O.2     1  UNL1       -0.2745
     20 N         140.1177  141.7219  161.9052 N.am    1  UNL1       -0.2547
     21 C         139.6179  142.6308  162.9886 C.ar    1  UNL1        0.0878
     22 C         140.3894  142.7682  164.2677 C.ar    1  UNL1        0.0180
     23 C         139.8894  143.6773  165.3511 C.ar    1  UNL1        0.0015
     24 C         138.6181  144.4489  165.1555 C.ar    1  UNL1        0.0032
     25 C         137.8467  144.3115  163.8765 C.ar    1  UNL1        0.0379
     26 C         138.3465  143.4025  162.7930 C.ar    1  UNL1        0.1472
     27 O         137.5750  143.2651  161.5140 O.3     1  UNL1       -0.5042
     28 H         136.7809  143.7472  161.3919 H       1  UNL1        0.2922
     29 C         143.2215  143.6317  161.8336 C.3     1  UNL1        0.0101
     30 C         141.8638  143.5145  161.2068 C.3     1  UNL1        0.0856
@<TRIPOS>BOND
     1    29    30    1
     2    30    18    1
     3    18    19    2
     4    18    20   am
     5    20    17    1
     6    17     1    1
     7     1     4    1
     8     4     5    1
     9     5     6    1
    10     6     7    1
    11     7    10    1
    12    10    11    1
    13    11    12   ar
    14    12    13   ar
    15    13    14   ar
    16    14    15   ar
    17    15    16   ar
    18     7     8    1
    19     8     9    1
    20     1     2    1
    21     2     3    1
    22    20    21    1
    23    21    22   ar
    24    22    23   ar
    25    23    24   ar
    26    24    25   ar
    27    25    26   ar
    28    26    27    1
    29     3     1    1
    30    26    21   ar
    31     9     4    1
    32    16    11   ar
    33    27    28    1
@<TRIPOS>MOLECULE
*****
 30 33 0 0 0
SMALL
GASTEIGER

@<TRIPOS>ATOM
      1 C         139.3243  138.6619  163.0938 C.3     1  UNL1        0.0642
      2 C         139.6622  138.0031  161.7892 C.3     1  UNL1        0.0178
      3 C         140.4709  137.6978  163.0152 C.3     1  UNL1        0.0178
      4 N         139.3929  139.0303  164.5463 N.3     1  UNL1       -0.2712
      5 C         140.6233  139.6891  165.0956 C.3     1  UNL1        0.0897
      6 C         140.6918  140.0576  166.5480 C.3     1  UNL1        0.0899
      7 N         139.5298  139.7671  167.4511 N.3     1  UNL1       -0.2665
      8 C         138.2994  139.1083  166.9017 C.3     1  UNL1        0.0899
      9 C         138.2309  138.7399  165.4493 C.3     1  UNL1        0.0897
     10 C         139.5984  140.1356  168.9036 C.3     1  UNL1        0.0992
     11 C         140.6388  141.1037  169.3834 C.ar    1  UNL1       -0.0061
     12 C         142.0099  140.6135  169.7438 C.ar    1  UNL1       -0.0029
     13 C         143.0504  141.5817  170.2237 C.ar    1  UNL1       -0.0003
     14 C         142.7197  143.0399  170.3433 C.ar    1  UNL1       -0.0000
     15 C         141.3486  143.5300  169.9829 C.ar    1  UNL1       -0.0003
     16 C         140.3081  142.5619  169.5030 C.ar    1  UNL1       -0.0029
     17 C         138.1540  139.4979  162.6680 C.3     1  UNL1        0.1128
     18 C         138.2532  141.0754  160.6060 C.2     1  UNL1        0.2294
     19 O         137.9022  139.9254  159.7092 O.2     1  UNL1       -0.2745
     20 N         138.3791  140.8618  162.0854 N.am    1  UNL1       -0.2547
     21 C         138.7300  142.0118  162.9820 C.ar    1  UNL1        0.0878
     22 C         137.6529  142.7226  163.7467 C.ar    1  UNL1        0.0180
     23 C         138.0039  143.8727  164.6435 C.ar    1  UNL1        0.0015
     24 C         139.4320  144.3121  164.7754 C.ar    1  UNL1        0.0032
     25 C         140.5091  143.6014  164.0108 C.ar    1  UNL1        0.0379
     26 C         140.1581  142.4512  163.1141 C.ar    1  UNL1        0.1472
     27 O         141.2353  141.7406  162.3495 O.3     1  UNL1       -0.5042
     28 H         142.1273  142.0151  162.4320 H       1  UNL1        0.2922
     29 C         138.6217  142.6065  158.5397 C.3     1  UNL1        0.0101
     30 C         138.4782  142.4392  160.0234 C.3     1  UNL1        0.0856
@<TRIPOS>BOND
     1    29    30    1
     2    30    18    1
     3    18    19    2
     4    18    20   am
     5    20    17    1
     6    17     1    1
     7     1     4    1
     8     4     5    1
     9     5     6    1
    10     6     7    1
    11     7    10    1
    12    10    11    1
    13    11    12   ar
    14    12    13   ar
    15    13    14   ar
    16    14    15   ar
    17    15    16   ar
    18     7     8    1
    19     8     9    1
    20     1     2    1
    21     2     3    1
    22    20    21    1
    23    21    22   ar
    24    22    23   ar
    25    23    24   ar
    26    24    25   ar
    27    25    26   ar
    28    26    27    1
    29     3     1    1
    30    26    21   ar
    31     9     4    1
    32    16    11   ar
    33    27    28    1
@<TRIPOS>MOLECULE
*****
 30 33 0 0 0
SMALL
GASTEIGER

@<TRIPOS>ATOM
      1 C         138.8065  139.9890  161.2991 C.3     1  UNL1        0.0642
      2 C         137.8519  138.8372  161.4090 C.3     1  UNL1        0.0178
      3 C         137.7389  139.7982  160.2628 C.3     1  UNL1        0.0178
      4 N         139.4705  141.2235  160.7649 N.3     1  UNL1       -0.2712
      5 C         140.8909  141.5314  161.1358 C.3     1  UNL1        0.0897
      6 C         141.5547  142.7658  160.6016 C.3     1  UNL1        0.0899
      7 N         140.7982  143.6924  159.6966 N.3     1  UNL1       -0.2665
      8 C         139.3778  143.3845  159.3257 C.3     1  UNL1        0.0899
      9 C         138.7139  142.1501  159.8599 C.3     1  UNL1        0.0897
     10 C         141.4621  144.9269  159.1624 C.3     1  UNL1        0.0992
     11 C         141.2958  145.3036  157.7201 C.ar    1  UNL1       -0.0061
     12 C         142.2170  144.7304  156.6842 C.ar    1  UNL1       -0.0029
     13 C         142.0506  145.1071  155.2418 C.ar    1  UNL1       -0.0003
     14 C         140.9631  146.0569  154.8353 C.ar    1  UNL1       -0.0000
     15 C         140.0420  146.6301  155.8712 C.ar    1  UNL1       -0.0003
     16 C         140.2083  146.2534  157.3135 C.ar    1  UNL1       -0.0029
     17 C         139.6435  139.7511  162.5209 C.3     1  UNL1        0.1128
     18 C         138.7283  139.0305  164.8432 C.2     1  UNL1        0.2294
     19 O         138.8773  137.5893  164.4548 O.2     1  UNL1       -0.2745
     20 N         139.1114  140.1114  163.8763 N.am    1  UNL1       -0.2547
     21 C         138.9624  141.5525  164.2648 C.ar    1  UNL1        0.0878
     22 C         140.0854  142.2612  164.9624 C.ar    1  UNL1        0.0180
     23 C         139.9364  143.7024  165.3509 C.ar    1  UNL1        0.0015
     24 C         138.6643  144.4348  165.0418 C.ar    1  UNL1        0.0032
     25 C         137.5414  143.7261  164.3444 C.ar    1  UNL1        0.0379
     26 C         137.6904  142.2849  163.9558 C.ar    1  UNL1        0.1472
     27 O         136.5674  141.5762  163.2583 O.3     1  UNL1       -0.5042
     28 H         135.7728  142.0338  163.0653 H       1  UNL1        0.2922
     29 C         139.1354  139.5336  167.3594 C.3     1  UNL1        0.0101
     30 C         138.1962  139.3907  166.1986 C.3     1  UNL1        0.0856
@<TRIPOS>BOND
     1    29    30    1
     2    30    18    1
     3    18    19    2
     4    18    20   am
     5    20    17    1
     6    17     1    1
     7     1     4    1
     8     4     5    1
     9     5     6    1
    10     6     7    1
    11     7    10    1
    12    10    11    1
    13    11    12   ar
    14    12    13   ar
    15    13    14   ar
    16    14    15   ar
    17    15    16   ar
    18     7     8    1
    19     8     9    1
    20     1     2    1
    21     2     3    1
    22    20    21    1
    23    21    22   ar
    24    22    23   ar
    25    23    24   ar
    26    24    25   ar
    27    25    26   ar
    28    26    27    1
    29     3     1    1
    30    26    21   ar
    31     9     4    1
    32    16    11   ar
    33    27    28    1
@<TRIPOS>MOLECULE
*****
 30 33 0 0 0
SMALL
GASTEIGER

@<TRIPOS>ATOM
      1 C         138.9569  142.0645  162.6373 C.3     1  UNL1        0.0642
      2 C         137.7346  142.5410  161.9100 C.3     1  UNL1        0.0178
      3 C         137.6572  142.2123  163.3716 C.3     1  UNL1        0.0178
      4 N         139.8336  141.5809  163.7544 N.3     1  UNL1       -0.2712
      5 C         140.9915  140.6739  163.4601 C.3     1  UNL1        0.0897
      6 C         141.8681  140.1904  164.5771 C.3     1  UNL1        0.0899
      7 N         141.5869  140.6140  165.9883 N.3     1  UNL1       -0.2665
      8 C         140.4290  141.5210  166.2826 C.3     1  UNL1        0.0899
      9 C         139.5524  142.0045  165.1656 C.3     1  UNL1        0.0897
     10 C         142.4636  140.1304  167.1053 C.3     1  UNL1        0.0992
     11 C         142.3615  140.7575  168.4641 C.ar    1  UNL1       -0.0061
     12 C         143.1156  142.0184  168.7667 C.ar    1  UNL1       -0.0029
     13 C         143.0135  142.6455  170.1256 C.ar    1  UNL1       -0.0003
     14 C         142.1574  142.0118  171.1817 C.ar    1  UNL1       -0.0000
     15 C         141.4034  140.7509  170.8790 C.ar    1  UNL1       -0.0003
     16 C         141.5054  140.1238  169.5203 C.ar    1  UNL1       -0.0029
     17 C         139.9521  142.0846  161.5153 C.3     1  UNL1        0.1128
     18 C         140.1853  144.0820  159.8703 C.2     1  UNL1        0.2294
     19 O         139.0985  143.5034  159.0135 O.2     1  UNL1       -0.2745
     20 N         140.6121  143.3727  161.1212 N.am    1  UNL1       -0.2547
     21 C         141.6988  143.9514  161.9779 C.ar    1  UNL1        0.0878
     22 C         143.1213  143.5188  161.7790 C.ar    1  UNL1        0.0180
     23 C         144.2080  144.0976  162.6358 C.ar    1  UNL1        0.0015
     24 C         143.8723  145.1090  163.6914 C.ar    1  UNL1        0.0032
     25 C         142.4500  145.5416  163.8902 C.ar    1  UNL1        0.0379
     26 C         141.3632  144.9629  163.0335 C.ar    1  UNL1        0.1472
     27 O         139.9408  145.3956  163.2324 O.3     1  UNL1       -0.5042
     28 H         139.7312  146.0274  163.8918 H       1  UNL1        0.2922
     29 C         141.7183  145.4234  158.2576 C.3     1  UNL1        0.0101
     30 C         140.8452  145.3702  159.4762 C.3     1  UNL1        0.0856
@<TRIPOS>BOND
     1    29    30    1
     2    30    18    1
     3    18    19    2
     4    18    20   am
     5    20    17    1
     6    17     1    1
     7     1     4    1
     8     4     5    1
     9     5     6    1
    10     6     7    1
    11     7    10    1
    12    10    11    1
    13    11    12   ar
    14    12    13   ar
    15    13    14   ar
    16    14    15   ar
    17    15    16   ar
    18     7     8    1
    19     8     9    1
    20     1     2    1
    21     2     3    1
    22    20    21    1
    23    21    22   ar
    24    22    23   ar
    25    23    24   ar
    26    24    25   ar
    27    25    26   ar
    28    26    27    1
    29     3     1    1
    30    26    21   ar
    31     9     4    1
    32    16    11   ar
    33    27    28    1
@<TRIPOS>MOLECULE
*****
 30 33 0 0 0
SMALL
GASTEIGER

@<TRIPOS>ATOM
      1 C         143.1483  142.0100  161.7827 C.3     1  UNL1        0.0642
      2 C         143.2074  141.4143  160.4073 C.3     1  UNL1        0.0178
      3 C         143.3799  140.5377  161.6124 C.3     1  UNL1        0.0178
      4 N         143.1726  142.1060  163.2795 N.3     1  UNL1       -0.2712
      5 C         142.2768  141.2280  164.1020 C.3     1  UNL1        0.0897
      6 C         142.3011  141.3240  165.5987 C.3     1  UNL1        0.0899
      7 N         143.2212  142.2982  166.2729 N.3     1  UNL1       -0.2665
      8 C         144.1170  143.1762  165.4504 C.3     1  UNL1        0.0899
      9 C         144.0927  143.0801  163.9537 C.3     1  UNL1        0.0897
     10 C         143.2455  142.3942  167.7697 C.3     1  UNL1        0.0992
     11 C         142.2254  141.6564  168.5852 C.ar    1  UNL1       -0.0061
     12 C         140.8932  142.2854  168.8672 C.ar    1  UNL1       -0.0029
     13 C         139.8731  141.5475  169.6827 C.ar    1  UNL1       -0.0003
     14 C         140.1853  140.1808  170.2163 C.ar    1  UNL1       -0.0000
     15 C         141.5175  139.5519  169.9343 C.ar    1  UNL1       -0.0003
     16 C         142.5376  140.2897  169.1188 C.ar    1  UNL1       -0.0029
     17 C         142.9083  143.4488  161.4334 C.3     1  UNL1        0.1128
     18 C         141.5863  144.3650  159.3930 C.2     1  UNL1        0.2294
     19 O         142.8610  144.4555  158.6076 O.2     1  UNL1       -0.2745
     20 N         141.6099  143.8617  160.8059 N.am    1  UNL1       -0.2547
     21 C         140.3352  143.7713  161.5912 C.ar    1  UNL1        0.0878
     22 C         139.4677  142.5530  161.4755 C.ar    1  UNL1        0.0180
     23 C         138.1929  142.4627  162.2609 C.ar    1  UNL1        0.0015
     24 C         137.7856  143.5906  163.1620 C.ar    1  UNL1        0.0032
     25 C         138.6530  144.8087  163.2777 C.ar    1  UNL1        0.0379
     26 C         139.9278  144.8992  162.4923 C.ar    1  UNL1        0.1472
     27 O         140.7952  146.1175  162.6080 O.3     1  UNL1       -0.5042
     28 H         140.5407  146.8220  163.1709 H       1  UNL1        0.2922
     29 C         140.2328  145.9910  157.8850 C.3     1  UNL1        0.0101
     30 C         140.2879  144.7779  158.7656 C.3     1  UNL1        0.0856
@<TRIPOS>BOND
     1    29    30    1
     2    30    18    1
     3    18    19    2
     4    18    20   am
     5    20    17    1
     6    17     1    1
     7     1     4    1
     8     4     5    1
     9     5     6    1
    10     6     7    1
    11     7    10    1
    12    10    11    1
    13    11    12   ar
    14    12    13   ar
    15    13    14   ar
    16    14    15   ar
    17    15    16   ar
    18     7     8    1
    19     8     9    1
    20     1     2    1
    21     2     3    1
    22    20    21    1
    23    21    22   ar
    24    22    23   ar
    25    23    24   ar
    26    24    25   ar
    27    25    26   ar
    28    26    27    1
    29     3     1    1
    30    26    21   ar
    31     9     4    1
    32    16    11   ar
    33    27    28    1
@<TRIPOS>MOLECULE
*****
 30 33 0 0 0
SMALL
GASTEIGER

@<TRIPOS>ATOM
      1 C         142.9208  144.2427  163.4654 C.3     1  UNL1        0.0642
      2 C         143.9811  145.1758  162.9602 C.3     1  UNL1        0.0178
      3 C         143.9464  144.7947  164.4107 C.3     1  UNL1        0.0178
      4 N         142.1200  143.3996  164.4131 N.3     1  UNL1       -0.2712
      5 C         142.8092  142.3975  165.2910 C.3     1  UNL1        0.0897
      6 C         142.0084  141.5545  166.2386 C.3     1  UNL1        0.0899
      7 N         140.5185  141.7136  166.3084 N.3     1  UNL1       -0.2665
      8 C         139.8293  142.7158  165.4304 C.3     1  UNL1        0.0899
      9 C         140.6301  143.5588  164.4828 C.3     1  UNL1        0.0897
     10 C         139.7177  140.8706  167.2561 C.3     1  UNL1        0.0992
     11 C         139.1286  139.5721  166.7903 C.ar    1  UNL1       -0.0061
     12 C         137.9684  138.9686  167.5249 C.ar    1  UNL1       -0.0029
     13 C         137.3793  137.6700  167.0591 C.ar    1  UNL1       -0.0003
     14 C         137.9505  136.9751  165.8588 C.ar    1  UNL1       -0.0000
     15 C         139.1107  137.5786  165.1242 C.ar    1  UNL1       -0.0003
     16 C         139.6998  138.8771  165.5900 C.ar    1  UNL1       -0.0029
     17 C         142.1733  143.9835  162.1910 C.3     1  UNL1        0.1128
     18 C         142.8323  143.1996  159.8033 C.2     1  UNL1        0.2294
     19 O         142.5740  144.5808  159.2785 O.2     1  UNL1       -0.2745
     20 N         142.6319  142.9008  161.2595 N.am    1  UNL1       -0.2547
     21 C         142.8902  141.5196  161.7842 C.ar    1  UNL1        0.0878
     22 C         141.7495  140.5642  161.9748 C.ar    1  UNL1        0.0180
     23 C         142.0079  139.1829  162.4996 C.ar    1  UNL1        0.0015
     24 C         143.4068  138.7570  162.8337 C.ar    1  UNL1        0.0032
     25 C         144.5473  139.7123  162.6432 C.ar    1  UNL1        0.0379
     26 C         144.2891  141.0936  162.1184 C.ar    1  UNL1        0.1472
     27 O         145.4297  142.0489  161.9279 O.3     1  UNL1       -0.5042
     28 H         146.3035  141.7828  162.1366 H       1  UNL1        0.2922
     29 C         144.6997  142.1178  158.3567 C.3     1  UNL1        0.0101
     30 C         143.2909  142.1169  158.8718 C.3     1  UNL1        0.0856
@<TRIPOS>BOND
     1    29    30    1
     2    30    18    1
     3    18    19    2
     4    18    20   am
     5    20    17    1
     6    17     1    1
     7     1     4    1
     8     4     5    1
     9     5     6    1
    10     6     7    1
    11     7    10    1
    12    10    11    1
    13    11    12   ar
    14    12    13   ar
    15    13    14   ar
    16    14    15   ar
    17    15    16   ar
    18     7     8    1
    19     8     9    1
    20     1     2    1
    21     2     3    1
    22    20    21    1
    23    21    22   ar
    24    22    23   ar
    25    23    24   ar
    26    24    25   ar
    27    25    26   ar
    28    26    27    1
    29     3     1    1
    30    26    21   ar
    31     9     4    1
    32    16    11   ar
    33    27    28    1
@<TRIPOS>MOLECULE
*****
 30 33 0 0 0
SMALL
GASTEIGER

@<TRIPOS>ATOM
      1 C         139.3625  143.6890  163.0284 C.3     1  UNL1        0.0642
      2 C         139.1158  144.9404  162.2390 C.3     1  UNL1        0.0178
      3 C         138.7227  144.8762  163.6852 C.3     1  UNL1        0.0178
      4 N         139.3904  142.7348  164.1855 N.3     1  UNL1       -0.2712
      5 C         138.6883  141.4131  164.0847 C.3     1  UNL1        0.0897
      6 C         138.7163  140.4589  165.2418 C.3     1  UNL1        0.0899
      7 N         139.4464  140.8265  166.4995 N.3     1  UNL1       -0.2665
      8 C         140.1485  142.1481  166.6002 C.3     1  UNL1        0.0899
      9 C         140.1205  143.1023  165.4432 C.3     1  UNL1        0.0897
     10 C         139.4743  139.8722  167.6566 C.3     1  UNL1        0.0992
     11 C         140.3575  140.1501  168.8367 C.ar    1  UNL1       -0.0061
     12 C         139.8142  140.8917  170.0219 C.ar    1  UNL1       -0.0029
     13 C         140.6974  141.1696  171.2021 C.ar    1  UNL1       -0.0003
     14 C         142.1238  140.7058  171.1971 C.ar    1  UNL1       -0.0000
     15 C         142.6672  139.9641  170.0118 C.ar    1  UNL1       -0.0003
     16 C         141.7840  139.6863  168.8317 C.ar    1  UNL1       -0.0029
     17 C         139.9925  142.8332  161.9698 C.3     1  UNL1        0.1128
     18 C         141.9082  142.8898  160.2157 C.2     1  UNL1        0.2294
     19 O         140.9167  142.6156  159.1240 O.2     1  UNL1       -0.2745
     20 N         141.4462  142.9986  161.6386 N.am    1  UNL1       -0.2547
     21 C         142.4377  143.2729  162.7302 C.ar    1  UNL1        0.0878
     22 C         142.8106  144.6862  163.0670 C.ar    1  UNL1        0.0180
     23 C         143.8022  144.9604  164.1587 C.ar    1  UNL1        0.0015
     24 C         144.4208  143.8213  164.9134 C.ar    1  UNL1        0.0032
     25 C         144.0479  142.4081  164.5767 C.ar    1  UNL1        0.0379
     26 C         143.0563  142.1338  163.4850 C.ar    1  UNL1        0.1472
     27 O         142.6834  140.7205  163.1482 O.3     1  UNL1       -0.5042
     28 H         143.0698  140.0090  163.6198 H       1  UNL1        0.2922
     29 C         144.2038  141.8514  159.5817 C.3     1  UNL1        0.0101
     30 C         143.3618  143.0553  159.8844 C.3     1  UNL1        0.0856
@<TRIPOS>BOND
     1    29    30    1
     2    30    18    1
     3    18    19    2
     4    18    20   am
     5    20    17    1
     6    17     1    1
     7     1     4    1
     8     4     5    1
     9     5     6    1
    10     6     7    1
    11     7    10    1
    12    10    11    1
    13    11    12   ar
    14    12    13   ar
    15    13    14   ar
    16    14    15   ar
    17    15    16   ar
    18     7     8    1
    19     8     9    1
    20     1     2    1
    21     2     3    1
    22    20    21    1
    23    21    22   ar
    24    22    23   ar
    25    23    24   ar
    26    24    25   ar
    27    25    26   ar
    28    26    27    1
    29     3     1    1
    30    26    21   ar
    31     9     4    1
    32    16    11   ar
    33    27    28    1
