@<TRIPOS>MOLECULE
*****
 31 34 0 0 0
SMALL
GASTEIGER

@<TRIPOS>ATOM
      1 N         137.0373  137.6255  167.7650 N.pl3   1  UNL1       -0.3274
      2 C         137.8707  138.7282  167.1820 C.ar    1  UNL1        0.2148
      3 N         138.8277  139.4860  168.0535 N.ar    1  UNL1       -0.1985
      4 C         139.6611  140.5886  167.4706 C.ar    1  UNL1        0.1420
      5 C         139.5373  140.9333  166.0160 C.ar    1  UNL1        0.0788
      6 S         140.2226  141.9623  165.1666 S.2     1  UNL1       -0.0826
      7 C         139.6891  141.8403  163.7700 C.ar    1  UNL1        0.0311
      8 C         138.6740  140.7360  163.7563 C.ar    1  UNL1        0.0263
      9 C         138.5802  140.1755  165.1444 C.ar    1  UNL1        0.0933
     10 N         137.7469  139.0729  165.7274 N.ar    1  UNL1       -0.2134
     11 H         137.1186  137.3992  168.7196 H       1  UNL1        0.1452
     12 H         136.4092  137.1281  167.1929 H       1  UNL1        0.1452
     13 N         140.6181  141.3464  168.3423 N.pl3   1  UNL1       -0.2926
     14 C         142.0239  140.8535  168.5179 C.3     1  UNL1        0.0935
     15 C         142.9810  141.6112  169.3895 C.3     1  UNL1        0.0370
     16 C         142.5323  142.8619  170.0855 C.3     1  UNL1        0.0542
     17 N         143.4894  143.6197  170.9571 N.3     1  UNL1       -0.3221
     18 C         141.1265  143.3549  169.9099 C.3     1  UNL1        0.0370
     19 C         140.1694  142.5971  169.0382 C.3     1  UNL1        0.0935
     20 H         144.3928  143.1460  170.9621 H       1  UNL1        0.1188
     21 H         143.1226  143.6623  171.9079 H       1  UNL1        0.1188
     22 C         140.0987  142.6760  162.5936 C.ar    1  UNL1        0.0060
     23 C         141.3707  143.4694  162.6438 C.ar    1  UNL1        0.0004
     24 C         141.7802  144.3051  161.4673 C.ar    1  UNL1        0.0039
     25 C         140.9179  144.3472  160.2407 C.ar    1  UNL1        0.0714
     26 C         139.6460  143.5537  160.1904 C.ar    1  UNL1        0.0039
     27 C         139.2364  142.7181  161.3669 C.ar    1  UNL1        0.0004
     28 C         141.3275  145.1828  159.0642 C.3     1  UNL1        0.4186
     29 F         141.7372  146.0184  157.8879 F       1  UNL1       -0.1659
     30 F         140.0658  145.9836  159.1937 F       1  UNL1       -0.1659
     31 F         142.5893  144.3820  158.9349 F       1  UNL1       -0.1659
@<TRIPOS>BOND
     1     1     2    1
     2     2     3   ar
     3     3     4   ar
     4     4    13    1
     5    13    14    1
     6    14    15    1
     7    15    16    1
     8    16    17    1
     9    16    18    1
    10    18    19    1
    11     4     5   ar
    12     5     6   ar
    13     6     7   ar
    14     7    22    1
    15    22    23   ar
    16    23    24   ar
    17    24    25   ar
    18    25    28    1
    19    28    29    1
    20    28    30    1
    21    28    31    1
    22    25    26   ar
    23    26    27   ar
    24     7     8   ar
    25     8     9   ar
    26     9    10   ar
    27    10     2   ar
    28    19    13    1
    29     9     5   ar
    30    27    22   ar
    31     1    11    1
    32     1    12    1
    33    17    20    1
    34    17    21    1
@<TRIPOS>MOLECULE
*****
 31 34 0 0 0
SMALL
GASTEIGER

@<TRIPOS>ATOM
      1 N         136.9569  137.8382  167.7056 N.pl3   1  UNL1       -0.3274
      2 C         138.0841  138.6562  167.1484 C.ar    1  UNL1        0.2148
      3 N         138.9008  139.5255  168.0579 N.ar    1  UNL1       -0.1985
      4 C         140.0280  140.3436  167.5007 C.ar    1  UNL1        0.1420
      5 C         140.3383  140.2923  166.0341 C.ar    1  UNL1        0.0788
      6 S         141.3800  140.9819  165.2039 S.2     1  UNL1       -0.0826
      7 C         141.2069  140.5388  163.7813 C.ar    1  UNL1        0.0311
      8 C         140.0583  139.5753  163.7323 C.ar    1  UNL1        0.0263
      9 C         139.5214  139.4230  165.1246 C.ar    1  UNL1        0.0933
     10 N         138.3943  138.6049  165.6818 N.ar    1  UNL1       -0.2134
     11 H         136.7532  137.8718  168.6682 H       1  UNL1        0.1452
     12 H         136.4208  137.2676  167.1086 H       1  UNL1        0.1452
     13 N         140.8448  141.2128  168.4103 N.pl3   1  UNL1       -0.2926
     14 C         142.1808  140.7387  168.9005 C.3     1  UNL1        0.0935
     15 C         142.9976  141.6079  169.8100 C.3     1  UNL1        0.0370
     16 C         142.4784  142.9512  170.2293 C.3     1  UNL1        0.0542
     17 N         143.2952  143.8205  171.1388 N.3     1  UNL1       -0.3221
     18 C         141.1424  143.4254  169.7390 C.3     1  UNL1        0.0370
     19 C         140.3256  142.5562  168.8295 C.3     1  UNL1        0.0935
     20 H         144.1671  143.3447  171.3712 H       1  UNL1        0.1188
     21 H         142.7706  144.0057  171.9937 H       1  UNL1        0.1188
     22 C         142.0368  140.9815  162.6128 C.ar    1  UNL1        0.0060
     23 C         141.7534  142.2951  161.9464 C.ar    1  UNL1        0.0004
     24 C         142.5833  142.7377  160.7779 C.ar    1  UNL1        0.0039
     25 C         143.6966  141.8668  160.2758 C.ar    1  UNL1        0.0714
     26 C         143.9800  140.5532  160.9423 C.ar    1  UNL1        0.0039
     27 C         143.1501  140.1106  162.1108 C.ar    1  UNL1        0.0004
     28 C         144.5265  142.3094  159.1073 C.3     1  UNL1        0.4186
     29 F         145.3564  142.7521  157.9389 F       1  UNL1       -0.1659
     30 F         143.4774  141.7944  158.1671 F       1  UNL1       -0.1659
     31 F         145.5756  142.8245  160.0477 F       1  UNL1       -0.1659
@<TRIPOS>BOND
     1     1     2    1
     2     2     3   ar
     3     3     4   ar
     4     4    13    1
     5    13    14    1
     6    14    15    1
     7    15    16    1
     8    16    17    1
     9    16    18    1
    10    18    19    1
    11     4     5   ar
    12     5     6   ar
    13     6     7   ar
    14     7    22    1
    15    22    23   ar
    16    23    24   ar
    17    24    25   ar
    18    25    28    1
    19    28    29    1
    20    28    30    1
    21    28    31    1
    22    25    26   ar
    23    26    27   ar
    24     7     8   ar
    25     8     9   ar
    26     9    10   ar
    27    10     2   ar
    28    19    13    1
    29     9     5   ar
    30    27    22   ar
    31     1    11    1
    32     1    12    1
    33    17    20    1
    34    17    21    1
@<TRIPOS>MOLECULE
*****
 31 34 0 0 0
SMALL
GASTEIGER

@<TRIPOS>ATOM
      1 N         144.6431  137.0227  167.3452 N.pl3   1  UNL1       -0.3274
      2 C         143.8619  138.2209  166.8932 C.ar    1  UNL1        0.2148
      3 N         143.0487  139.0026  167.8819 N.ar    1  UNL1       -0.1985
      4 C         142.2675  140.2008  167.4300 C.ar    1  UNL1        0.1420
      5 C         142.2997  140.6172  165.9893 C.ar    1  UNL1        0.0788
      6 S         141.6371  141.7453  165.2556 S.2     1  UNL1       -0.0826
      7 C         142.0408  141.6608  163.8135 C.ar    1  UNL1        0.0311
      8 C         142.9530  140.4805  163.6558 C.ar    1  UNL1        0.0263
      9 C         143.1129  139.8355  165.0006 C.ar    1  UNL1        0.0933
     10 N         143.8941  138.6373  165.4526 N.ar    1  UNL1       -0.2134
     11 H         144.6220  136.7493  168.2907 H       1  UNL1        0.1452
     12 H         145.1768  136.5097  166.6962 H       1  UNL1        0.1452
     13 N         141.4542  140.9824  168.4188 N.pl3   1  UNL1       -0.2926
     14 C         141.9133  142.3404  168.8604 C.3     1  UNL1        0.0935
     15 C         141.1001  143.1222  169.8492 C.3     1  UNL1        0.0370
     16 C         139.8279  142.5458  170.3962 C.3     1  UNL1        0.0542
     17 N         139.0147  143.3276  171.3850 N.3     1  UNL1       -0.3221
     18 C         139.3688  141.1878  169.9545 C.3     1  UNL1        0.0370
     19 C         140.1820  140.4061  168.9658 C.3     1  UNL1        0.0935
     20 H         139.4712  144.2207  171.5701 H       1  UNL1        0.1188
     21 H         138.9363  142.7992  172.2540 H       1  UNL1        0.1188
     22 C         141.6084  142.5930  162.7207 C.ar    1  UNL1        0.0060
     23 C         141.2770  144.0206  163.0402 C.ar    1  UNL1        0.0004
     24 C         140.8446  144.9528  161.9474 C.ar    1  UNL1        0.0039
     25 C         140.7436  144.4573  160.5352 C.ar    1  UNL1        0.0714
     26 C         141.0749  143.0297  160.2157 C.ar    1  UNL1        0.0039
     27 C         141.5074  142.0976  161.3086 C.ar    1  UNL1        0.0004
     28 C         140.3111  145.3895  159.4425 C.3     1  UNL1        0.4186
     29 F         139.8788  146.3216  158.3498 F       1  UNL1       -0.1659
     30 F         139.7043  146.3053  160.4638 F       1  UNL1       -0.1659
     31 F         140.9180  144.4737  158.4212 F       1  UNL1       -0.1659
@<TRIPOS>BOND
     1     1     2    1
     2     2     3   ar
     3     3     4   ar
     4     4    13    1
     5    13    14    1
     6    14    15    1
     7    15    16    1
     8    16    17    1
     9    16    18    1
    10    18    19    1
    11     4     5   ar
    12     5     6   ar
    13     6     7   ar
    14     7    22    1
    15    22    23   ar
    16    23    24   ar
    17    24    25   ar
    18    25    28    1
    19    28    29    1
    20    28    30    1
    21    28    31    1
    22    25    26   ar
    23    26    27   ar
    24     7     8   ar
    25     8     9   ar
    26     9    10   ar
    27    10     2   ar
    28    19    13    1
    29     9     5   ar
    30    27    22   ar
    31     1    11    1
    32     1    12    1
    33    17    20    1
    34    17    21    1
@<TRIPOS>MOLECULE
*****
 31 34 0 0 0
SMALL
GASTEIGER

@<TRIPOS>ATOM
      1 N         144.0012  138.0158  156.1505 N.pl3   1  UNL1       -0.3274
      2 C         142.9330  138.4516  157.1093 C.ar    1  UNL1        0.2148
      3 N         141.8470  139.3792  156.6511 N.ar    1  UNL1       -0.1985
      4 C         140.7789  139.8150  157.6099 C.ar    1  UNL1        0.1420
      5 C         140.7969  139.3231  159.0269 C.ar    1  UNL1        0.0788
      6 S         139.8846  139.5790  160.1898 S.2     1  UNL1       -0.0826
      7 C         140.4069  138.8094  161.3666 C.ar    1  UNL1        0.0311
      8 C         141.6420  138.0779  160.9311 C.ar    1  UNL1        0.0263
      9 C         141.8829  138.3954  159.4850 C.ar    1  UNL1        0.0933
     10 N         142.9510  137.9597  158.5262 N.ar    1  UNL1       -0.2134
     11 H         143.9894  138.3386  155.2205 H       1  UNL1        0.1452
     12 H         144.7140  137.4069  156.4512 H       1  UNL1        0.1452
     13 N         139.6928  140.7427  157.1517 N.pl3   1  UNL1       -0.2926
     14 C         139.8994  142.2271  157.2123 C.3     1  UNL1        0.0935
     15 C         138.8134  143.1549  156.7542 C.3     1  UNL1        0.0370
     16 C         137.5209  142.5981  156.2354 C.3     1  UNL1        0.0542
     17 N         136.4349  143.5259  155.7772 N.3     1  UNL1       -0.3221
     18 C         137.3142  141.1137  156.1748 C.3     1  UNL1        0.0370
     19 C         138.4002  140.1859  156.6330 C.3     1  UNL1        0.0935
     20 H         136.7437  144.4917  155.8878 H       1  UNL1        0.1188
     21 H         135.5965  143.3707  156.3371 H       1  UNL1        0.1188
     22 C         139.8007  138.7770  162.7383 C.ar    1  UNL1        0.0060
     23 C         139.9667  137.5627  163.6031 C.ar    1  UNL1        0.0004
     24 C         139.3604  137.5304  164.9748 C.ar    1  UNL1        0.0039
     25 C         138.5881  138.7122  165.4816 C.ar    1  UNL1        0.0714
     26 C         138.4220  139.9264  164.6167 C.ar    1  UNL1        0.0039
     27 C         139.0283  139.9588  163.2450 C.ar    1  UNL1        0.0004
     28 C         137.9818  138.6798  166.8532 C.3     1  UNL1        0.4186
     29 F         137.3756  138.6474  168.2248 F       1  UNL1       -0.1659
     30 F         137.4155  137.3198  166.5708 F       1  UNL1       -0.1659
     31 F         138.5482  140.0398  167.1356 F       1  UNL1       -0.1659
@<TRIPOS>BOND
     1     1     2    1
     2     2     3   ar
     3     3     4   ar
     4     4    13    1
     5    13    14    1
     6    14    15    1
     7    15    16    1
     8    16    17    1
     9    16    18    1
    10    18    19    1
    11     4     5   ar
    12     5     6   ar
    13     6     7   ar
    14     7    22    1
    15    22    23   ar
    16    23    24   ar
    17    24    25   ar
    18    25    28    1
    19    28    29    1
    20    28    30    1
    21    28    31    1
    22    25    26   ar
    23    26    27   ar
    24     7     8   ar
    25     8     9   ar
    26     9    10   ar
    27    10     2   ar
    28    19    13    1
    29     9     5   ar
    30    27    22   ar
    31     1    11    1
    32     1    12    1
    33    17    20    1
    34    17    21    1
@<TRIPOS>MOLECULE
*****
 31 34 0 0 0
SMALL
GASTEIGER

@<TRIPOS>ATOM
      1 N         145.5796  141.5361  156.5975 N.pl3   1  UNL1       -0.3274
      2 C         144.5935  140.6878  157.3445 C.ar    1  UNL1        0.2148
      3 N         144.0866  139.4144  156.7352 N.ar    1  UNL1       -0.1985
      4 C         143.1004  138.5661  157.4821 C.ar    1  UNL1        0.1420
      5 C         142.6212  138.9913  158.8384 C.ar    1  UNL1        0.0788
      6 S         141.6599  138.3654  159.8050 S.2     1  UNL1       -0.0826
      7 C         141.5728  139.2521  161.0117 C.ar    1  UNL1        0.0311
      8 C         142.4802  140.4259  160.7909 C.ar    1  UNL1        0.0263
      9 C         143.1282  140.2647  159.4477 C.ar    1  UNL1        0.0933
     10 N         144.1143  141.1130  158.7008 N.ar    1  UNL1       -0.2134
     11 H         145.8942  141.2571  155.7073 H       1  UNL1        0.1452
     12 H         145.9123  142.3720  156.9975 H       1  UNL1        0.1452
     13 N         142.5935  137.2926  156.8727 N.pl3   1  UNL1       -0.2926
     14 C         141.3479  137.3050  156.0370 C.3     1  UNL1        0.0935
     15 C         140.8409  136.0316  155.4275 C.3     1  UNL1        0.0370
     16 C         141.5796  134.7458  155.6538 C.3     1  UNL1        0.0542
     17 N         141.0726  133.4724  155.0444 N.3     1  UNL1       -0.3221
     18 C         142.8251  134.7334  156.4895 C.3     1  UNL1        0.0370
     19 C         143.3321  136.0068  157.0990 C.3     1  UNL1        0.0935
     20 H         140.2233  133.6643  154.5131 H       1  UNL1        0.1188
     21 H         140.8668  132.8002  155.7834 H       1  UNL1        0.1188
     22 C         140.7268  139.0078  162.2260 C.ar    1  UNL1        0.0060
     23 C         140.9149  139.8500  163.4529 C.ar    1  UNL1        0.0004
     24 C         140.0689  139.6056  164.6673 C.ar    1  UNL1        0.0039
     25 C         139.0347  138.5192  164.6547 C.ar    1  UNL1        0.0714
     26 C         138.8466  137.6770  163.4278 C.ar    1  UNL1        0.0039
     27 C         139.6927  137.9214  162.2135 C.ar    1  UNL1        0.0004
     28 C         138.1887  138.2749  165.8690 C.3     1  UNL1        0.4186
     29 F         137.3428  138.0307  167.0833 F       1  UNL1       -0.1659
     30 F         138.5059  136.8107  165.7955 F       1  UNL1       -0.1659
     31 F         137.8716  139.7392  165.9425 F       1  UNL1       -0.1659
@<TRIPOS>BOND
     1     1     2    1
     2     2     3   ar
     3     3     4   ar
     4     4    13    1
     5    13    14    1
     6    14    15    1
     7    15    16    1
     8    16    17    1
     9    16    18    1
    10    18    19    1
    11     4     5   ar
    12     5     6   ar
    13     6     7   ar
    14     7    22    1
    15    22    23   ar
    16    23    24   ar
    17    24    25   ar
    18    25    28    1
    19    28    29    1
    20    28    30    1
    21    28    31    1
    22    25    26   ar
    23    26    27   ar
    24     7     8   ar
    25     8     9   ar
    26     9    10   ar
    27    10     2   ar
    28    19    13    1
    29     9     5   ar
    30    27    22   ar
    31     1    11    1
    32     1    12    1
    33    17    20    1
    34    17    21    1
@<TRIPOS>MOLECULE
*****
 31 34 0 0 0
SMALL
GASTEIGER

@<TRIPOS>ATOM
      1 N         139.0977  146.9250  160.9859 N.pl3   1  UNL1       -0.3274
      2 C         139.7906  145.7141  161.5370 C.ar    1  UNL1        0.2148
      3 N         140.6113  144.8432  160.6327 N.ar    1  UNL1       -0.1985
      4 C         141.3042  143.6322  161.1838 C.ar    1  UNL1        0.1420
      5 C         141.1762  143.2923  162.6391 C.ar    1  UNL1        0.0788
      6 S         141.7400  142.1715  163.4614 S.2     1  UNL1       -0.0826
      7 C         141.2676  142.3498  164.8738 C.ar    1  UNL1        0.0311
      8 C         140.4118  143.5808  164.9245 C.ar    1  UNL1        0.0263
      9 C         140.3553  144.1632  163.5434 C.ar    1  UNL1        0.0933
     10 N         139.6625  145.3741  162.9923 N.ar    1  UNL1       -0.2134
     11 H         139.1817  147.1482  160.0307 H       1  UNL1        0.1452
     12 H         138.5589  147.4966  161.5795 H       1  UNL1        0.1452
     13 N         142.1250  142.7613  160.2794 N.pl3   1  UNL1       -0.2926
     14 C         141.4656  141.6733  159.4848 C.3     1  UNL1        0.0935
     15 C         142.2864  140.8023  158.5805 C.3     1  UNL1        0.0370
     16 C         143.7665  141.0195  158.4708 C.3     1  UNL1        0.0542
     17 N         144.5872  140.1485  157.5664 N.3     1  UNL1       -0.3221
     18 C         144.4259  142.1075  159.2654 C.3     1  UNL1        0.0370
     19 C         143.6051  142.9784  160.1697 C.3     1  UNL1        0.0935
     20 H         143.9813  139.4680  157.1080 H       1  UNL1        0.1188
     21 H         145.2940  139.6590  158.1153 H       1  UNL1        0.1188
     22 C         141.5937  141.4544  166.0322 C.ar    1  UNL1        0.0060
     23 C         142.4613  140.2482  165.8268 C.ar    1  UNL1        0.0004
     24 C         142.7874  139.3529  166.9853 C.ar    1  UNL1        0.0039
     25 C         142.2458  139.6637  168.3492 C.ar    1  UNL1        0.0714
     26 C         141.3782  140.8699  168.5546 C.ar    1  UNL1        0.0039
     27 C         141.0521  141.7653  167.3961 C.ar    1  UNL1        0.0004
     28 C         142.5719  138.7683  169.5076 C.3     1  UNL1        0.4186
     29 F         142.8980  137.8729  170.6659 F       1  UNL1       -0.1659
     30 F         141.7303  139.6248  170.4065 F       1  UNL1       -0.1659
     31 F         143.4135  137.9118  168.6086 F       1  UNL1       -0.1659
@<TRIPOS>BOND
     1     1     2    1
     2     2     3   ar
     3     3     4   ar
     4     4    13    1
     5    13    14    1
     6    14    15    1
     7    15    16    1
     8    16    17    1
     9    16    18    1
    10    18    19    1
    11     4     5   ar
    12     5     6   ar
    13     6     7   ar
    14     7    22    1
    15    22    23   ar
    16    23    24   ar
    17    24    25   ar
    18    25    28    1
    19    28    29    1
    20    28    30    1
    21    28    31    1
    22    25    26   ar
    23    26    27   ar
    24     7     8   ar
    25     8     9   ar
    26     9    10   ar
    27    10     2   ar
    28    19    13    1
    29     9     5   ar
    30    27    22   ar
    31     1    11    1
    32     1    12    1
    33    17    20    1
    34    17    21    1
@<TRIPOS>MOLECULE
*****
 31 34 0 0 0
SMALL
GASTEIGER

@<TRIPOS>ATOM
      1 N         139.9733  146.1040  159.3268 N.pl3   1  UNL1       -0.3274
      2 C         140.1642  144.9512  160.2674 C.ar    1  UNL1        0.2148
      3 N         140.7034  143.6480  159.7569 N.ar    1  UNL1       -0.1985
      4 C         140.8944  142.4953  160.6975 C.ar    1  UNL1        0.1420
      5 C         140.5462  142.6459  162.1487 C.ar    1  UNL1        0.0788
      6 S         140.6264  141.6929  163.3043 S.2     1  UNL1       -0.0826
      7 C         140.1368  142.4072  164.5290 C.ar    1  UNL1        0.0311
      8 C         139.7540  143.8017  164.1304 C.ar    1  UNL1        0.0263
      9 C         140.0070  143.9492  162.6593 C.ar    1  UNL1        0.0933
     10 N         139.8160  145.1019  161.7186 N.ar    1  UNL1       -0.2134
     11 H         140.2018  146.0052  158.3743 H       1  UNL1        0.1452
     12 H         139.6194  146.9594  159.6619 H       1  UNL1        0.1452
     13 N         141.4336  141.1920  160.1869 N.pl3   1  UNL1       -0.2926
     14 C         140.4910  140.1061  159.7599 C.3     1  UNL1        0.0935
     15 C         141.0301  138.8028  159.2493 C.3     1  UNL1        0.0370
     16 C         142.5119  138.5854  159.1656 C.3     1  UNL1        0.0542
     17 N         143.0510  137.2821  158.6550 N.3     1  UNL1       -0.3221
     18 C         143.4545  139.6713  159.5926 C.3     1  UNL1        0.0370
     19 C         142.9154  140.9746  160.1033 C.3     1  UNL1        0.0935
     20 H         142.2758  136.6653  158.4122 H       1  UNL1        0.1188
     21 H         143.6210  136.8433  159.3781 H       1  UNL1        0.1188
     22 C         140.0460  141.8287  165.9100 C.ar    1  UNL1        0.0060
     23 C         139.4583  140.4638  166.1142 C.ar    1  UNL1        0.0004
     24 C         139.3675  139.8854  167.4953 C.ar    1  UNL1        0.0039
     25 C         139.8644  140.6717  168.6720 C.ar    1  UNL1        0.0714
     26 C         140.4521  142.0366  168.4678 C.ar    1  UNL1        0.0039
     27 C         140.5429  142.6150  167.0868 C.ar    1  UNL1        0.0004
     28 C         139.7736  140.0931  170.0530 C.3     1  UNL1        0.4186
     29 F         139.6828  139.5146  171.4338 F       1  UNL1       -0.1659
     30 F         138.4109  140.6982  170.2168 F       1  UNL1       -0.1659
     31 F         141.1364  139.4881  169.8890 F       1  UNL1       -0.1659
@<TRIPOS>BOND
     1     1     2    1
     2     2     3   ar
     3     3     4   ar
     4     4    13    1
     5    13    14    1
     6    14    15    1
     7    15    16    1
     8    16    17    1
     9    16    18    1
    10    18    19    1
    11     4     5   ar
    12     5     6   ar
    13     6     7   ar
    14     7    22    1
    15    22    23   ar
    16    23    24   ar
    17    24    25   ar
    18    25    28    1
    19    28    29    1
    20    28    30    1
    21    28    31    1
    22    25    26   ar
    23    26    27   ar
    24     7     8   ar
    25     8     9   ar
    26     9    10   ar
    27    10     2   ar
    28    19    13    1
    29     9     5   ar
    30    27    22   ar
    31     1    11    1
    32     1    12    1
    33    17    20    1
    34    17    21    1
@<TRIPOS>MOLECULE
*****
 31 34 0 0 0
SMALL
GASTEIGER

@<TRIPOS>ATOM
      1 N         139.1598  146.8637  161.0540 N.pl3   1  UNL1       -0.3274
      2 C         139.5039  145.5168  161.6175 C.ar    1  UNL1        0.2148
      3 N         139.4439  144.3001  160.7425 N.ar    1  UNL1       -0.1985
      4 C         139.7880  142.9532  161.3061 C.ar    1  UNL1        0.1420
      5 C         140.1922  142.8232  162.7447 C.ar    1  UNL1        0.0788
      6 S         140.5845  141.6362  163.5737 S.2     1  UNL1       -0.0826
      7 C         140.8870  142.1195  164.9611 C.ar    1  UNL1        0.0311
      8 C         140.6817  143.6051  164.9896 C.ar    1  UNL1        0.0263
      9 C         140.2522  144.0400  163.6198 C.ar    1  UNL1        0.0933
     10 N         139.9081  145.3868  163.0562 N.ar    1  UNL1       -0.2134
     11 H         138.8945  146.9491  160.1097 H       1  UNL1        0.1452
     12 H         139.1992  147.6623  161.6283 H       1  UNL1        0.1452
     13 N         139.7280  141.7364  160.4309 N.pl3   1  UNL1       -0.2926
     14 C         140.9232  141.3386  159.6165 C.3     1  UNL1        0.0935
     15 C         140.8632  140.1219  158.7413 C.3     1  UNL1        0.0370
     16 C         139.6081  139.3029  158.6807 C.3     1  UNL1        0.0542
     17 N         139.5481  138.0861  157.8055 N.3     1  UNL1       -0.3221
     18 C         138.4129  139.7006  159.4951 C.3     1  UNL1        0.0370
     19 C         138.4728  140.9174  160.3703 C.3     1  UNL1        0.0935
     20 H         140.4415  137.9663  157.3282 H       1  UNL1        0.1188
     21 H         138.8062  138.2003  157.1149 H       1  UNL1        0.1188
     22 C         141.3191  141.2669  166.1171 C.ar    1  UNL1        0.0060
     23 C         142.3756  140.2199  165.9233 C.ar    1  UNL1        0.0004
     24 C         142.8076  139.3673  167.0794 C.ar    1  UNL1        0.0039
     25 C         142.1831  139.5616  168.4292 C.ar    1  UNL1        0.0714
     26 C         141.1266  140.6086  168.6231 C.ar    1  UNL1        0.0039
     27 C         140.6946  141.4612  167.4670 C.ar    1  UNL1        0.0004
     28 C         142.6152  138.7090  169.5853 C.3     1  UNL1        0.4186
     29 F         143.0472  137.8565  170.7412 F       1  UNL1       -0.1659
     30 F         143.4746  137.8951  168.6638 F       1  UNL1       -0.1659
     31 F         141.7557  139.5230  170.5067 F       1  UNL1       -0.1659
@<TRIPOS>BOND
     1     1     2    1
     2     2     3   ar
     3     3     4   ar
     4     4    13    1
     5    13    14    1
     6    14    15    1
     7    15    16    1
     8    16    17    1
     9    16    18    1
    10    18    19    1
    11     4     5   ar
    12     5     6   ar
    13     6     7   ar
    14     7    22    1
    15    22    23   ar
    16    23    24   ar
    17    24    25   ar
    18    25    28    1
    19    28    29    1
    20    28    30    1
    21    28    31    1
    22    25    26   ar
    23    26    27   ar
    24     7     8   ar
    25     8     9   ar
    26     9    10   ar
    27    10     2   ar
    28    19    13    1
    29     9     5   ar
    30    27    22   ar
    31     1    11    1
    32     1    12    1
    33    17    20    1
    34    17    21    1
@<TRIPOS>MOLECULE
*****
 31 34 0 0 0
SMALL
GASTEIGER

@<TRIPOS>ATOM
      1 N         145.0567  142.8855  158.2859 N.pl3   1  UNL1       -0.3274
      2 C         144.0706  141.9129  158.8621 C.ar    1  UNL1        0.2148
      3 N         143.5721  140.7687  158.0303 N.ar    1  UNL1       -0.1985
      4 C         142.5860  139.7962  158.6066 C.ar    1  UNL1        0.1420
      5 C         142.0986  139.9681  160.0147 C.ar    1  UNL1        0.0788
      6 S         141.1355  139.1748  160.8473 S.2     1  UNL1       -0.0826
      7 C         141.0389  139.8289  162.1937 C.ar    1  UNL1        0.0311
      8 C         141.9423  141.0263  162.1933 C.ar    1  UNL1        0.0263
      9 C         142.5973  141.1123  160.8466 C.ar    1  UNL1        0.0933
     10 N         143.5833  142.0848  160.2703 N.ar    1  UNL1       -0.2134
     11 H         145.3766  142.7727  157.3616 H       1  UNL1        0.1452
     12 H         145.3839  143.6365  158.8319 H       1  UNL1        0.1452
     13 N         142.0874  138.6519  157.7746 N.pl3   1  UNL1       -0.2926
     14 C         140.7588  138.7490  157.0852 C.3     1  UNL1        0.0935
     15 C         140.2601  137.6048  156.2532 C.3     1  UNL1        0.0370
     16 C         141.0902  136.3636  156.1108 C.3     1  UNL1        0.0542
     17 N         140.5915  135.2193  155.2788 N.3     1  UNL1       -0.3221
     18 C         142.4188  136.2665  156.8002 C.3     1  UNL1        0.0370
     19 C         142.9175  137.4107  157.6321 C.3     1  UNL1        0.0935
     20 H         139.6795  135.4554  154.8878 H       1  UNL1        0.1188
     21 H         140.5063  134.3868  155.8619 H       1  UNL1        0.1188
     22 C         140.1882  139.3666  163.3394 C.ar    1  UNL1        0.0060
     23 C         139.3522  140.3537  164.0989 C.ar    1  UNL1        0.0004
     24 C         138.5016  139.8914  165.2446 C.ar    1  UNL1        0.0039
     25 C         138.4869  138.4421  165.6309 C.ar    1  UNL1        0.0714
     26 C         139.3229  137.4550  164.8715 C.ar    1  UNL1        0.0039
     27 C         140.1735  137.9173  163.7257 C.ar    1  UNL1        0.0004
     28 C         137.6362  137.9799  166.7766 C.3     1  UNL1        0.4186
     29 F         136.7856  137.5176  167.9223 F       1  UNL1       -0.1659
     30 F         137.5479  139.3901  167.2800 F       1  UNL1       -0.1659
     31 F         137.7246  136.5696  166.2732 F       1  UNL1       -0.1659
@<TRIPOS>BOND
     1     1     2    1
     2     2     3   ar
     3     3     4   ar
     4     4    13    1
     5    13    14    1
     6    14    15    1
     7    15    16    1
     8    16    17    1
     9    16    18    1
    10    18    19    1
    11     4     5   ar
    12     5     6   ar
    13     6     7   ar
    14     7    22    1
    15    22    23   ar
    16    23    24   ar
    17    24    25   ar
    18    25    28    1
    19    28    29    1
    20    28    30    1
    21    28    31    1
    22    25    26   ar
    23    26    27   ar
    24     7     8   ar
    25     8     9   ar
    26     9    10   ar
    27    10     2   ar
    28    19    13    1
    29     9     5   ar
    30    27    22   ar
    31     1    11    1
    32     1    12    1
    33    17    20    1
    34    17    21    1
