@<TRIPOS>MOLECULE
*****
 31 34 0 0 0
SMALL
GASTEIGER

@<TRIPOS>ATOM
      1 N         140.4323  140.8492  164.9165 N.ar    1  UNL1       -0.2915
      2 C         140.6741  141.7711  163.7583 C.ar    1  UNL1        0.1658
      3 N         139.7566  141.3651  162.6432 N.ar    1  UNL1       -0.2282
      4 C         138.9478  140.1922  163.1123 C.ar    1  UNL1        0.0885
      5 C         139.3654  139.8734  164.5173 C.ar    1  UNL1        0.0573
      6 C         143.2398  141.0327  170.2160 C.3     1  UNL1        0.0521
      7 C         142.5379  140.9868  168.8911 C.ar    1  UNL1        0.0595
      8 C         141.5694  142.0696  168.5176 C.ar    1  UNL1        0.0162
      9 C         140.8675  142.0237  167.1928 C.ar    1  UNL1        0.0203
     10 C         141.1342  140.8951  166.2414 C.ar    1  UNL1        0.0842
     11 C         142.1027  139.8124  166.6149 C.ar    1  UNL1        0.1159
     12 N         142.8046  139.8583  167.9398 N.ar    1  UNL1       -0.2466
     13 C         141.6603  142.9008  163.7215 C.ar    1  UNL1        0.1261
     14 N         143.1162  142.6184  163.4960 N.ar    1  UNL1       -0.2399
     15 C         144.1023  143.7481  163.4592 C.ar    1  UNL1        0.0990
     16 C         143.6327  145.1601  163.6479 C.ar    1  UNL1        0.0215
     17 C         142.1769  145.4425  163.8734 C.ar    1  UNL1        0.0146
     18 C         141.1907  144.3128  163.9102 C.ar    1  UNL1        0.0783
     19 CL        139.7348  144.5953  164.1357 Cl      1  UNL1       -0.0806
     20 C         138.8130  138.7721  165.3728 C.3     1  UNL1        0.0400
     21 C         139.0832  137.3399  165.0187 C.3     1  UNL1        0.0063
     22 C         137.9902  139.1031  166.5827 C.3     1  UNL1        0.0063
     23 C         137.9045  139.4657  162.3162 C.3     1  UNL1        0.1163
     24 N         138.3122  138.4069  161.3350 N.3     1  UNL1       -0.2934
     25 H         137.7490  138.5498  160.4967 H       1  UNL1        0.1236
     26 C         139.7401  138.3104  160.8860 C.3     1  UNL1        0.0571
     27 C         140.2661  138.6857  159.5323 C.3     1  UNL1        0.0186
     28 C         141.7439  138.4289  159.5216 C.3     1  UNL1        0.0367
     29 C         142.1313  137.8948  160.8687 C.3     1  UNL1        0.1624
     30 F         143.5142  137.5027  161.2973 F       1  UNL1       -0.2372
     31 C         140.8929  137.8216  161.7119 C.3     1  UNL1        0.0510
@<TRIPOS>BOND
     1     6     7    1
     2     7     8   ar
     3     8     9   ar
     4     9    10   ar
     5    10     1    1
     6     1     2   ar
     7     2    13    1
     8    13    14   ar
     9    14    15   ar
    10    15    16   ar
    11    16    17   ar
    12    17    18   ar
    13    18    19    1
    14     2     3   ar
    15     3     4   ar
    16     4    23    1
    17    23    24    1
    18    26    24    1
    19    26    27    1
    20    27    28    1
    21    28    29    1
    22    29    30    1
    23    29    31    1
    24     4     5   ar
    25     5    20    1
    26    20    21    1
    27    20    22    1
    28    10    11   ar
    29    11    12   ar
    30    12     7   ar
    31     5     1   ar
    32    18    13   ar
    33    31    26    1
    34    24    25    1
@<TRIPOS>MOLECULE
*****
 31 34 0 0 0
SMALL
GASTEIGER

@<TRIPOS>ATOM
      1 N         139.5776  140.7134  164.7729 N.ar    1  UNL1       -0.2915
      2 C         139.9970  142.0457  165.3198 C.ar    1  UNL1        0.1658
      3 N         139.9987  141.9525  166.8170 N.ar    1  UNL1       -0.2282
      4 C         139.5803  140.5626  167.1953 C.ar    1  UNL1        0.0885
      5 C         139.3201  139.7968  165.9320 C.ar    1  UNL1        0.0573
      6 C         139.0266  139.2990  158.9681 C.3     1  UNL1        0.0521
      7 C         139.1643  139.6526  160.4193 C.ar    1  UNL1        0.0595
      8 C         137.9409  139.8035  161.2739 C.ar    1  UNL1        0.0162
      9 C         138.0786  140.1571  162.7251 C.ar    1  UNL1        0.0203
     10 C         139.4398  140.3598  163.3217 C.ar    1  UNL1        0.0842
     11 C         140.6633  140.2088  162.4672 C.ar    1  UNL1        0.1159
     12 N         140.5255  139.8552  161.0160 N.ar    1  UNL1       -0.2466
     13 C         140.3523  143.2583  164.5116 C.ar    1  UNL1        0.1261
     14 N         141.7890  143.6598  164.3536 N.ar    1  UNL1       -0.2399
     15 C         142.1443  144.8724  163.5453 C.ar    1  UNL1        0.0990
     16 C         141.0630  145.6835  162.8950 C.ar    1  UNL1        0.0215
     17 C         139.6264  145.2821  163.0530 C.ar    1  UNL1        0.0146
     18 C         139.2711  144.0694  163.8613 C.ar    1  UNL1        0.0783
     19 CL        137.8344  143.6680  164.0192 Cl      1  UNL1       -0.0806
     20 C         138.8796  138.3656  165.8435 C.3     1  UNL1        0.0400
     21 C         137.7077  137.8903  166.6499 C.3     1  UNL1        0.0063
     22 C         139.6113  137.4098  164.9483 C.3     1  UNL1        0.0063
     23 C         139.4459  140.0316  168.5917 C.3     1  UNL1        0.1163
     24 N         140.6693  139.8093  169.4307 N.3     1  UNL1       -0.2934
     25 H         141.2210  139.0907  168.9621 H       1  UNL1        0.1236
     26 C         141.5992  140.9506  169.7179 C.3     1  UNL1        0.0571
     27 C         141.2051  142.2970  170.2487 C.3     1  UNL1        0.0186
     28 C         142.4489  143.1245  170.3835 C.3     1  UNL1        0.0367
     29 C         143.6119  142.2895  169.9360 C.3     1  UNL1        0.1624
     30 F         145.0478  142.7220  169.9052 F       1  UNL1       -0.2372
     31 C         143.0867  140.9459  169.5245 C.3     1  UNL1        0.0510
@<TRIPOS>BOND
     1     6     7    1
     2     7     8   ar
     3     8     9   ar
     4     9    10   ar
     5    10     1    1
     6     1     2   ar
     7     2    13    1
     8    13    14   ar
     9    14    15   ar
    10    15    16   ar
    11    16    17   ar
    12    17    18   ar
    13    18    19    1
    14     2     3   ar
    15     3     4   ar
    16     4    23    1
    17    23    24    1
    18    26    24    1
    19    26    27    1
    20    27    28    1
    21    28    29    1
    22    29    30    1
    23    29    31    1
    24     4     5   ar
    25     5    20    1
    26    20    21    1
    27    20    22    1
    28    10    11   ar
    29    11    12   ar
    30    12     7   ar
    31     5     1   ar
    32    18    13   ar
    33    31    26    1
    34    24    25    1
@<TRIPOS>MOLECULE
*****
 31 34 0 0 0
SMALL
GASTEIGER

@<TRIPOS>ATOM
      1 N         140.1853  140.6644  167.0453 N.ar    1  UNL1       -0.2915
      2 C         139.1209  139.7183  166.5742 C.ar    1  UNL1        0.1658
      3 N         138.3554  139.2467  167.7749 N.ar    1  UNL1       -0.2282
      4 C         138.9467  139.9013  168.9881 C.ar    1  UNL1        0.0885
      5 C         140.0776  140.7775  168.5371 C.ar    1  UNL1        0.0573
      6 C         144.1731  143.4987  163.5721 C.3     1  UNL1        0.0521
      7 C         143.1762  142.7901  164.4404 C.ar    1  UNL1        0.0595
      8 C         141.8947  143.4709  164.8202 C.ar    1  UNL1        0.0162
      9 C         140.8978  142.7624  165.6886 C.ar    1  UNL1        0.0203
     10 C         141.1822  141.3730  166.1770 C.ar    1  UNL1        0.0842
     11 C         142.4637  140.6922  165.7971 C.ar    1  UNL1        0.1159
     12 N         143.4606  141.4007  164.9288 N.ar    1  UNL1       -0.2466
     13 C         138.8665  139.3146  165.1521 C.ar    1  UNL1        0.1261
     14 N         139.2515  137.9434  164.6814 N.ar    1  UNL1       -0.2399
     15 C         138.9972  137.5397  163.2593 C.ar    1  UNL1        0.0990
     16 C         138.3579  138.5073  162.3079 C.ar    1  UNL1        0.0215
     17 C         137.9729  139.8785  162.7786 C.ar    1  UNL1        0.0146
     18 C         138.2272  140.2821  164.2007 C.ar    1  UNL1        0.0783
     19 CL        137.8422  141.6534  164.6714 Cl      1  UNL1       -0.0806
     20 C         140.9481  141.6190  169.4226 C.3     1  UNL1        0.0400
     21 C         142.2762  141.0966  169.8842 C.3     1  UNL1        0.0063
     22 C         140.4904  142.9832  169.8466 C.3     1  UNL1        0.0063
     23 C         138.4878  139.7128  170.4037 C.3     1  UNL1        0.1163
     24 N         137.0260  139.5622  170.7044 N.3     1  UNL1       -0.2934
     25 H         136.5558  139.4110  169.8120 H       1  UNL1        0.1236
     26 C         136.5585  138.4778  171.6293 C.3     1  UNL1        0.0571
     27 C         137.3898  137.3419  172.1477 C.3     1  UNL1        0.0186
     28 C         136.5226  136.5010  173.0370 C.3     1  UNL1        0.0367
     29 C         135.1553  137.1172  173.0684 C.3     1  UNL1        0.1624
     30 F         133.9735  136.6022  173.8350 F       1  UNL1       -0.2372
     31 C         135.1775  138.3390  172.1983 C.3     1  UNL1        0.0510
@<TRIPOS>BOND
     1     6     7    1
     2     7     8   ar
     3     8     9   ar
     4     9    10   ar
     5    10     1    1
     6     1     2   ar
     7     2    13    1
     8    13    14   ar
     9    14    15   ar
    10    15    16   ar
    11    16    17   ar
    12    17    18   ar
    13    18    19    1
    14     2     3   ar
    15     3     4   ar
    16     4    23    1
    17    23    24    1
    18    26    24    1
    19    26    27    1
    20    27    28    1
    21    28    29    1
    22    29    30    1
    23    29    31    1
    24     4     5   ar
    25     5    20    1
    26    20    21    1
    27    20    22    1
    28    10    11   ar
    29    11    12   ar
    30    12     7   ar
    31     5     1   ar
    32    18    13   ar
    33    31    26    1
    34    24    25    1
@<TRIPOS>MOLECULE
*****
 31 34 0 0 0
SMALL
GASTEIGER

@<TRIPOS>ATOM
      1 N         141.3734  140.5974  160.9172 N.ar    1  UNL1       -0.2915
      2 C         141.6344  140.7965  162.3809 C.ar    1  UNL1        0.1658
      3 N         140.3434  140.5853  163.1149 N.ar    1  UNL1       -0.2282
      4 C         139.2845  140.2556  162.1049 C.ar    1  UNL1        0.0885
      5 C         139.9211  140.2631  160.7467 C.ar    1  UNL1        0.0573
      6 C         145.4269  141.0576  156.5176 C.3     1  UNL1        0.0521
      7 C         144.4136  140.9426  157.6175 C.ar    1  UNL1        0.0595
      8 C         143.6352  142.1498  158.0495 C.ar    1  UNL1        0.0162
      9 C         142.6219  142.0348  159.1494 C.ar    1  UNL1        0.0203
     10 C         142.3868  140.7125  159.8173 C.ar    1  UNL1        0.0842
     11 C         143.1651  139.5052  159.3853 C.ar    1  UNL1        0.1159
     12 N         144.1785  139.6203  158.2854 N.ar    1  UNL1       -0.2466
     13 C         142.9545  141.1456  163.0016 C.ar    1  UNL1        0.1261
     14 N         143.2654  142.5709  163.3513 N.ar    1  UNL1       -0.2399
     15 C         144.5856  142.9200  163.9721 C.ar    1  UNL1        0.0990
     16 C         145.5949  141.8439  164.2431 C.ar    1  UNL1        0.0215
     17 C         145.2840  140.4188  163.8934 C.ar    1  UNL1        0.0146
     18 C         143.9638  140.0697  163.2726 C.ar    1  UNL1        0.0783
     19 CL        143.6530  138.6445  162.9229 Cl      1  UNL1       -0.0806
     20 C         139.2272  139.9851  159.4462 C.3     1  UNL1        0.0400
     21 C         138.2356  140.9689  158.8999 C.3     1  UNL1        0.0063
     22 C         139.5251  138.7231  158.6919 C.3     1  UNL1        0.0063
     23 C         137.8423  139.9687  162.4010 C.3     1  UNL1        0.1163
     24 N         136.9451  141.0655  162.8931 N.3     1  UNL1       -0.2934
     25 H         136.5057  140.7251  163.7483 H       1  UNL1        0.1236
     26 C         137.5155  142.4167  163.2075 C.3     1  UNL1        0.0571
     27 C         137.9415  143.4488  162.2058 C.3     1  UNL1        0.0186
     28 C         138.4493  144.6430  162.9581 C.3     1  UNL1        0.0367
     29 C         138.3373  144.3489  164.4248 C.3     1  UNL1        0.1624
     30 F         138.7329  145.2692  165.5412 F       1  UNL1       -0.2372
     31 C         137.7602  142.9730  164.5789 C.3     1  UNL1        0.0510
@<TRIPOS>BOND
     1     6     7    1
     2     7     8   ar
     3     8     9   ar
     4     9    10   ar
     5    10     1    1
     6     1     2   ar
     7     2    13    1
     8    13    14   ar
     9    14    15   ar
    10    15    16   ar
    11    16    17   ar
    12    17    18   ar
    13    18    19    1
    14     2     3   ar
    15     3     4   ar
    16     4    23    1
    17    23    24    1
    18    26    24    1
    19    26    27    1
    20    27    28    1
    21    28    29    1
    22    29    30    1
    23    29    31    1
    24     4     5   ar
    25     5    20    1
    26    20    21    1
    27    20    22    1
    28    10    11   ar
    29    11    12   ar
    30    12     7   ar
    31     5     1   ar
    32    18    13   ar
    33    31    26    1
    34    24    25    1
@<TRIPOS>MOLECULE
*****
 31 34 0 0 0
SMALL
GASTEIGER

@<TRIPOS>ATOM
      1 N         141.4451  139.4328  164.5001 N.ar    1  UNL1       -0.2915
      2 C         141.4535  139.8833  163.0694 C.ar    1  UNL1        0.1658
      3 N         142.8663  140.2253  162.6993 N.ar    1  UNL1       -0.2282
      4 C         143.7311  139.9862  163.9014 C.ar    1  UNL1        0.0885
      5 C         142.8527  139.4965  165.0143 C.ar    1  UNL1        0.0573
      6 C         136.6268  137.6836  167.6186 C.3     1  UNL1        0.0521
      7 C         137.8314  138.1209  166.8390 C.ar    1  UNL1        0.0595
      8 C         138.3794  137.2452  165.7514 C.ar    1  UNL1        0.0162
      9 C         139.5839  137.6825  164.9718 C.ar    1  UNL1        0.0203
     10 C         140.2405  138.9955  165.2797 C.ar    1  UNL1        0.0842
     11 C         139.6926  139.8712  166.3673 C.ar    1  UNL1        0.1159
     12 N         138.4880  139.4339  167.1469 N.ar    1  UNL1       -0.2466
     13 C         140.2588  139.9755  162.1670 C.ar    1  UNL1        0.1261
     14 N         140.0129  138.9129  161.1371 N.ar    1  UNL1       -0.2399
     15 C         138.8183  139.0052  160.2348 C.ar    1  UNL1        0.0990
     16 C         137.8694  140.1599  160.3623 C.ar    1  UNL1        0.0215
     17 C         138.1153  141.2224  161.3922 C.ar    1  UNL1        0.0146
     18 C         139.3099  141.1301  162.2945 C.ar    1  UNL1        0.0783
     19 CL        139.5557  142.1927  163.3244 Cl      1  UNL1       -0.0806
     20 C         143.3030  139.1340  166.3985 C.3     1  UNL1        0.0400
     21 C         143.0089  140.0522  167.5474 C.3     1  UNL1        0.0063
     22 C         144.0475  137.8530  166.6337 C.3     1  UNL1        0.0063
     23 C         145.2139  140.1995  163.9773 C.3     1  UNL1        0.1163
     24 N         145.7718  141.5919  163.9893 N.3     1  UNL1       -0.2934
     25 H         146.5575  141.5999  163.3389 H       1  UNL1        0.1236
     26 C         144.8960  142.7538  163.6248 C.3     1  UNL1        0.0571
     27 C         144.6315  143.2574  162.2369 C.3     1  UNL1        0.0186
     28 C         143.7030  144.4310  162.3386 C.3     1  UNL1        0.0367
     29 C         143.3935  144.6528  163.7896 C.3     1  UNL1        0.1624
     30 F         142.5032  145.7232  164.3475 F       1  UNL1       -0.2372
     31 C         144.1309  143.6162  164.5845 C.3     1  UNL1        0.0510
@<TRIPOS>BOND
     1     6     7    1
     2     7     8   ar
     3     8     9   ar
     4     9    10   ar
     5    10     1    1
     6     1     2   ar
     7     2    13    1
     8    13    14   ar
     9    14    15   ar
    10    15    16   ar
    11    16    17   ar
    12    17    18   ar
    13    18    19    1
    14     2     3   ar
    15     3     4   ar
    16     4    23    1
    17    23    24    1
    18    26    24    1
    19    26    27    1
    20    27    28    1
    21    28    29    1
    22    29    30    1
    23    29    31    1
    24     4     5   ar
    25     5    20    1
    26    20    21    1
    27    20    22    1
    28    10    11   ar
    29    11    12   ar
    30    12     7   ar
    31     5     1   ar
    32    18    13   ar
    33    31    26    1
    34    24    25    1
@<TRIPOS>MOLECULE
*****
 31 34 0 0 0
SMALL
GASTEIGER

@<TRIPOS>ATOM
      1 N         142.2045  140.7761  165.0933 N.ar    1  UNL1       -0.2915
      2 C         141.0557  140.1373  164.3708 C.ar    1  UNL1        0.1658
      3 N         141.1740  140.4818  162.9157 N.ar    1  UNL1       -0.2282
      4 C         142.3960  141.3336  162.7389 C.ar    1  UNL1        0.0885
      5 C         143.0328  141.5154  164.0848 C.ar    1  UNL1        0.0573
      6 C         143.2949  140.4340  170.9835 C.3     1  UNL1        0.0521
      7 C         143.0223  140.5195  169.5109 C.ar    1  UNL1        0.0595
      8 C         142.7366  141.8486  168.8770 C.ar    1  UNL1        0.0162
      9 C         142.4640  141.9341  167.4045 C.ar    1  UNL1        0.0203
     10 C         142.4771  140.6906  166.5659 C.ar    1  UNL1        0.0842
     11 C         142.7628  139.3615  167.1998 C.ar    1  UNL1        0.1159
     12 N         143.0354  139.2760  168.6723 N.ar    1  UNL1       -0.2466
     13 C         139.9777  139.3008  164.9939 C.ar    1  UNL1        0.1261
     14 N         138.9772  139.9322  165.9161 N.ar    1  UNL1       -0.2399
     15 C         137.8992  139.0957  166.5392 C.ar    1  UNL1        0.0990
     16 C         137.8217  137.6278  166.2402 C.ar    1  UNL1        0.0215
     17 C         138.8222  136.9965  165.3180 C.ar    1  UNL1        0.0146
     18 C         139.9002  137.8330  164.6949 C.ar    1  UNL1        0.0783
     19 CL        140.9006  137.2016  163.7726 Cl      1  UNL1       -0.0806
     20 C         144.2793  142.2991  164.3717 C.3     1  UNL1        0.0400
     21 C         145.6245  141.6971  164.0931 C.3     1  UNL1        0.0063
     22 C         144.1804  143.6850  164.9372 C.3     1  UNL1        0.0063
     23 C         142.8937  141.9034  161.4437 C.3     1  UNL1        0.1163
     24 N         142.4040  143.2418  160.9758 N.3     1  UNL1       -0.2934
     25 H         142.0777  143.1173  160.0174 H       1  UNL1        0.1236
     26 C         141.3051  143.9405  161.7200 C.3     1  UNL1        0.0571
     27 C         141.4820  145.0313  162.7343 C.3     1  UNL1        0.0186
     28 C         140.1225  145.4360  163.2219 C.3     1  UNL1        0.0367
     29 C         139.1051  144.5952  162.5090 C.3     1  UNL1        0.1624
     30 F         137.6181  144.6662  162.6921 F       1  UNL1       -0.2372
     31 C         139.8361  143.6709  161.5808 C.3     1  UNL1        0.0510
@<TRIPOS>BOND
     1     6     7    1
     2     7     8   ar
     3     8     9   ar
     4     9    10   ar
     5    10     1    1
     6     1     2   ar
     7     2    13    1
     8    13    14   ar
     9    14    15   ar
    10    15    16   ar
    11    16    17   ar
    12    17    18   ar
    13    18    19    1
    14     2     3   ar
    15     3     4   ar
    16     4    23    1
    17    23    24    1
    18    26    24    1
    19    26    27    1
    20    27    28    1
    21    28    29    1
    22    29    30    1
    23    29    31    1
    24     4     5   ar
    25     5    20    1
    26    20    21    1
    27    20    22    1
    28    10    11   ar
    29    11    12   ar
    30    12     7   ar
    31     5     1   ar
    32    18    13   ar
    33    31    26    1
    34    24    25    1
@<TRIPOS>MOLECULE
*****
 31 34 0 0 0
SMALL
GASTEIGER

@<TRIPOS>ATOM
      1 N         140.7824  141.3285  167.3515 N.ar    1  UNL1       -0.2915
      2 C         140.0717  140.0423  167.0505 C.ar    1  UNL1        0.1658
      3 N         139.5271  139.5010  168.3391 N.ar    1  UNL1       -0.2282
      4 C         139.9013  140.4526  169.4366 C.ar    1  UNL1        0.0885
      5 C         140.6771  141.5821  168.8262 C.ar    1  UNL1        0.0573
      6 C         143.5590  144.8418  163.3582 C.3     1  UNL1        0.0521
      7 C         142.8648  143.9635  164.3565 C.ar    1  UNL1        0.0595
      8 C         143.6660  143.0547  165.2408 C.ar    1  UNL1        0.0162
      9 C         142.9719  142.1763  166.2392 C.ar    1  UNL1        0.0203
     10 C         141.4766  142.2068  166.3532 C.ar    1  UNL1        0.0842
     11 C         140.6754  143.1157  165.4689 C.ar    1  UNL1        0.1159
     12 N         141.3695  143.9940  164.4705 N.ar    1  UNL1       -0.2466
     13 C         139.9303  139.4086  165.6983 C.ar    1  UNL1        0.1261
     14 N         138.6423  139.5382  164.9403 N.ar    1  UNL1       -0.2399
     15 C         138.5009  138.9045  163.5881 C.ar    1  UNL1        0.0990
     16 C         139.6474  138.1413  162.9938 C.ar    1  UNL1        0.0215
     17 C         140.9353  138.0118  163.7518 C.ar    1  UNL1        0.0146
     18 C         141.0767  138.6455  165.1041 C.ar    1  UNL1        0.0783
     19 CL        142.3647  138.5159  165.8620 Cl      1  UNL1       -0.0806
     20 C         141.2475  142.7585  169.5614 C.3     1  UNL1        0.0400
     21 C         142.6750  142.7354  170.0212 C.3     1  UNL1        0.0063
     22 C         140.3902  143.9583  169.8369 C.3     1  UNL1        0.0063
     23 C         139.5597  140.3014  170.8893 C.3     1  UNL1        0.1163
     24 N         139.2430  138.9459  171.4482 N.3     1  UNL1       -0.2934
     25 H         139.7220  138.8784  172.3462 H       1  UNL1        0.1236
     26 C         137.8167  138.5479  171.6871 C.3     1  UNL1        0.0571
     27 C         136.6067  139.2009  171.0876 C.3     1  UNL1        0.0186
     28 C         135.3921  138.4835  171.5976 C.3     1  UNL1        0.0367
     29 C         135.8514  137.3870  172.5124 C.3     1  UNL1        0.1624
     30 F         134.9676  136.4205  173.2434 F       1  UNL1       -0.2372
     31 C         137.3499  137.4268  172.5677 C.3     1  UNL1        0.0510
@<TRIPOS>BOND
     1     6     7    1
     2     7     8   ar
     3     8     9   ar
     4     9    10   ar
     5    10     1    1
     6     1     2   ar
     7     2    13    1
     8    13    14   ar
     9    14    15   ar
    10    15    16   ar
    11    16    17   ar
    12    17    18   ar
    13    18    19    1
    14     2     3   ar
    15     3     4   ar
    16     4    23    1
    17    23    24    1
    18    26    24    1
    19    26    27    1
    20    27    28    1
    21    28    29    1
    22    29    30    1
    23    29    31    1
    24     4     5   ar
    25     5    20    1
    26    20    21    1
    27    20    22    1
    28    10    11   ar
    29    11    12   ar
    30    12     7   ar
    31     5     1   ar
    32    18    13   ar
    33    31    26    1
    34    24    25    1
@<TRIPOS>MOLECULE
*****
 31 34 0 0 0
SMALL
GASTEIGER

@<TRIPOS>ATOM
      1 N         140.4855  140.7972  164.8290 N.ar    1  UNL1       -0.2915
      2 C         140.7209  141.6891  163.6461 C.ar    1  UNL1        0.1658
      3 N         139.7868  141.2642  162.5521 N.ar    1  UNL1       -0.2282
      4 C         138.9741  140.1098  163.0588 C.ar    1  UNL1        0.0885
      5 C         139.4059  139.8212  164.4660 C.ar    1  UNL1        0.0573
      6 C         143.3579  141.0837  170.0890 C.3     1  UNL1        0.0521
      7 C         142.6398  141.0121  168.7740 C.ar    1  UNL1        0.0595
      8 C         141.6427  142.0703  168.4053 C.ar    1  UNL1        0.0162
      9 C         140.9246  141.9987  167.0903 C.ar    1  UNL1        0.0203
     10 C         141.2036  140.8689  166.1440 C.ar    1  UNL1        0.0842
     11 C         142.2006  139.8106  166.5127 C.ar    1  UNL1        0.1159
     12 N         142.9187  139.8822  167.8277 N.ar    1  UNL1       -0.2466
     13 C         141.7158  142.8091  163.5706 C.ar    1  UNL1        0.1261
     14 N         143.1099  142.5425  163.0851 N.ar    1  UNL1       -0.2399
     15 C         144.1048  143.6626  163.0096 C.ar    1  UNL1        0.0990
     16 C         143.7056  145.0492  163.4194 C.ar    1  UNL1        0.0215
     17 C         142.3116  145.3158  163.9048 C.ar    1  UNL1        0.0146
     18 C         141.3167  144.1957  163.9804 C.ar    1  UNL1        0.0783
     19 CL        139.9226  144.4624  164.4658 Cl      1  UNL1       -0.0806
     20 C         138.8548  138.7454  165.3542 C.3     1  UNL1        0.0400
     21 C         139.1598  137.3054  165.0660 C.3     1  UNL1        0.0063
     22 C         137.9986  139.1097  166.5309 C.3     1  UNL1        0.0063
     23 C         137.9154  139.3733  162.2928 C.3     1  UNL1        0.1163
     24 N         137.3656  139.9553  161.0243 N.3     1  UNL1       -0.2934
     25 H         137.2168  140.9496  161.1968 H       1  UNL1        0.1236
     26 C         138.1487  139.8494  159.7494 C.3     1  UNL1        0.0571
     27 C         139.3110  138.9340  159.5021 C.3     1  UNL1        0.0186
     28 C         139.7877  139.1591  158.0978 C.3     1  UNL1        0.0367
     29 C         138.9201  140.2138  157.4772 C.3     1  UNL1        0.1624
     30 F         139.0437  140.7479  156.0811 F       1  UNL1       -0.2372
     31 C         137.9071  140.6403  158.4980 C.3     1  UNL1        0.0510
@<TRIPOS>BOND
     1     6     7    1
     2     7     8   ar
     3     8     9   ar
     4     9    10   ar
     5    10     1    1
     6     1     2   ar
     7     2    13    1
     8    13    14   ar
     9    14    15   ar
    10    15    16   ar
    11    16    17   ar
    12    17    18   ar
    13    18    19    1
    14     2     3   ar
    15     3     4   ar
    16     4    23    1
    17    23    24    1
    18    26    24    1
    19    26    27    1
    20    27    28    1
    21    28    29    1
    22    29    30    1
    23    29    31    1
    24     4     5   ar
    25     5    20    1
    26    20    21    1
    27    20    22    1
    28    10    11   ar
    29    11    12   ar
    30    12     7   ar
    31     5     1   ar
    32    18    13   ar
    33    31    26    1
    34    24    25    1
@<TRIPOS>MOLECULE
*****
 31 34 0 0 0
SMALL
GASTEIGER

@<TRIPOS>ATOM
      1 N         140.6294  142.5380  164.5631 N.ar    1  UNL1       -0.2915
      2 C         141.7537  142.2274  163.6199 C.ar    1  UNL1        0.1658
      3 N         141.5720  143.0662  162.3898 N.ar    1  UNL1       -0.2282
      4 C         140.3354  143.8953  162.5726 C.ar    1  UNL1        0.0885
      5 C         139.7529  143.5689  163.9158 C.ar    1  UNL1        0.0573
      6 C         139.7866  140.0874  169.9745 C.3     1  UNL1        0.0521
      7 C         139.9973  140.7000  168.6217 C.ar    1  UNL1        0.0595
      8 C         139.4211  140.0427  167.4027 C.ar    1  UNL1        0.0162
      9 C         139.6318  140.6554  166.0498 C.ar    1  UNL1        0.0203
     10 C         140.4187  141.9253  165.9159 C.ar    1  UNL1        0.0842
     11 C         140.9949  142.5827  167.1349 C.ar    1  UNL1        0.1159
     12 N         140.7842  141.9700  168.4878 N.ar    1  UNL1       -0.2466
     13 C         142.8646  141.2496  163.8640 C.ar    1  UNL1        0.1261
     14 N         142.5607  139.7865  163.9953 N.ar    1  UNL1       -0.2399
     15 C         143.6717  138.8086  164.2394 C.ar    1  UNL1        0.0990
     16 C         145.0866  139.2938  164.3523 C.ar    1  UNL1        0.0215
     17 C         145.3904  140.7568  164.2211 C.ar    1  UNL1        0.0146
     18 C         144.2795  141.7346  163.9769 C.ar    1  UNL1        0.0783
     19 CL        144.5835  143.1977  163.8457 Cl      1  UNL1       -0.0806
     20 C         138.5117  144.1681  164.5077 C.3     1  UNL1        0.0400
     21 C         138.6111  145.0770  165.6967 C.3     1  UNL1        0.0063
     22 C         137.1709  143.8582  163.9106 C.3     1  UNL1        0.0063
     23 C         139.7789  144.8783  161.5856 C.3     1  UNL1        0.1163
     24 N         139.5430  144.4619  160.1640 N.3     1  UNL1       -0.2934
     25 H         138.7796  145.0389  159.8110 H       1  UNL1        0.1236
     26 C         140.6548  144.5539  159.1613 C.3     1  UNL1        0.0571
     27 C         140.9327  145.7181  158.2573 C.3     1  UNL1        0.0186
     28 C         142.1336  145.3815  157.4238 C.3     1  UNL1        0.0367
     29 C         142.5978  144.0091  157.8127 C.3     1  UNL1        0.1624
     30 F         143.7701  143.2769  157.2301 F       1  UNL1       -0.2372
     31 C         141.6838  143.4977  158.8865 C.3     1  UNL1        0.0510
@<TRIPOS>BOND
     1     6     7    1
     2     7     8   ar
     3     8     9   ar
     4     9    10   ar
     5    10     1    1
     6     1     2   ar
     7     2    13    1
     8    13    14   ar
     9    14    15   ar
    10    15    16   ar
    11    16    17   ar
    12    17    18   ar
    13    18    19    1
    14     2     3   ar
    15     3     4   ar
    16     4    23    1
    17    23    24    1
    18    26    24    1
    19    26    27    1
    20    27    28    1
    21    28    29    1
    22    29    30    1
    23    29    31    1
    24     4     5   ar
    25     5    20    1
    26    20    21    1
    27    20    22    1
    28    10    11   ar
    29    11    12   ar
    30    12     7   ar
    31     5     1   ar
    32    18    13   ar
    33    31    26    1
    34    24    25    1
