@<TRIPOS>MOLECULE
*****
 33 37 0 0 0
SMALL
GASTEIGER

@<TRIPOS>ATOM
      1 N         138.4863  139.5043  164.1820 N.am    1  UNL1       -0.2484
      2 C         139.6417  138.9873  163.3768 C.2     1  UNL1        0.3249
      3 O         140.8366  138.4027  164.0697 O.2     1  UNL1       -0.2488
      4 N         139.6018  139.0550  161.8789 N.ar    1  UNL1       -0.2594
      5 C         138.4807  139.6094  161.0508 C.ar    1  UNL1        0.0858
      6 C         138.8622  139.4772  159.6062 C.ar    1  UNL1        0.0398
      7 C         140.2191  138.8412  159.5414 C.ar    1  UNL1        0.1021
      8 N         141.0975  138.4660  158.3849 N.ar    1  UNL1       -0.2098
      9 C         142.4330  137.8298  158.6329 C.ar    1  UNL1        0.2316
     10 C         142.8902  137.5688  160.0376 C.ar    1  UNL1        0.0597
     11 C         142.0118  137.9441  161.1941 C.ar    1  UNL1        0.0240
     12 C         140.6763  138.5803  160.9460 C.ar    1  UNL1        0.0859
     13 H         137.7020  139.8880  163.7272 H       1  UNL1        0.1581
     14 C         139.1770  139.7959  167.9903 C.ar    1  UNL1        0.1549
     15 C         139.5035  140.1468  166.5689 C.ar    1  UNL1        0.0734
     16 C         138.5262  139.4365  165.6799 C.ar    1  UNL1        0.1773
     17 N         137.5956  138.6467  166.5518 N.ar    1  UNL1       -0.0620
     18 O         137.9979  138.8688  167.9797 O.2     1  UNL1       -0.3565
     19 C         138.6191  140.2561  169.9845 C.3     1  UNL1        0.0076
     20 C         139.9023  140.2860  169.2083 C.3     1  UNL1        0.0539
     21 C         141.1856  140.3159  168.4321 C.3     1  UNL1        0.0076
     22 C         140.6277  140.7761  170.4263 C.3     1  UNL1        0.0076
     23 O         143.3115  137.4545  157.4764 O.3     1  UNL1       -0.4189
     24 C         142.8241  136.4731  156.4520 C.ar    1  UNL1        0.2314
     25 N         142.2766  136.9636  155.1444 N.ar    1  UNL1       -0.1892
     26 C         141.7892  135.9823  154.1200 C.ar    1  UNL1        0.2012
     27 N         141.8495  134.5104  154.4031 N.ar    1  UNL1       -0.2270
     28 C         142.3970  134.0200  155.7106 C.ar    1  UNL1        0.0785
     29 C         142.8844  135.0014  156.7350 C.ar    1  UNL1        0.0622
     30 C         143.3687  134.2271  157.9250 C.3     1  UNL1        0.1019
     31 N         143.1807  132.7673  157.6361 N.3     1  UNL1       -0.2886
     32 C         142.5802  132.6393  156.2675 C.3     1  UNL1        0.1153
     33 H         142.5553  132.3551  158.3284 H       1  UNL1        0.1239
@<TRIPOS>BOND
     1    19    20    1
     2    20    21    1
     3    20    22    1
     4    20    14    1
     5    14    15   ar
     6    15    16   ar
     7    16     1    1
     8     1     2   am
     9     2     3    2
    10     2     4   am
    11     4     5   ar
    12     5     6   ar
    13     6     7   ar
    14     7     8   ar
    15     8     9   ar
    16     9    23    1
    17    23    24    1
    18    24    25   ar
    19    25    26   ar
    20    26    27   ar
    21    27    28   ar
    22    28    29   ar
    23    29    30    1
    24    30    31    1
    25    31    32    1
    26     9    10   ar
    27    10    11   ar
    28    11    12   ar
    29    16    17   ar
    30    17    18   ar
    31    18    14   ar
    32    12     4   ar
    33    12     7   ar
    34    29    24   ar
    35    32    28    1
    36     1    13    1
    37    31    33    1
@<TRIPOS>MOLECULE
*****
 33 37 0 0 0
SMALL
GASTEIGER

@<TRIPOS>ATOM
      1 N         139.9439  145.1955  160.0772 N.am    1  UNL1       -0.2484
      2 C         140.4419  144.0886  160.9586 C.2     1  UNL1        0.3249
      3 O         141.6516  143.2975  160.5578 O.2     1  UNL1       -0.2488
      4 N         139.7302  143.7729  162.2407 N.ar    1  UNL1       -0.2594
      5 C         138.5142  144.4739  162.7698 C.ar    1  UNL1        0.0858
      6 C         138.1420  143.8349  164.0749 C.ar    1  UNL1        0.0398
      7 C         139.1279  142.7390  164.3524 C.ar    1  UNL1        0.1021
      8 N         139.2587  141.7712  165.4908 N.ar    1  UNL1       -0.2098
      9 C         140.3711  140.7649  165.4956 C.ar    1  UNL1        0.2316
     10 C         141.3527  140.7266  164.3620 C.ar    1  UNL1        0.0597
     11 C         141.2219  141.6945  163.2236 C.ar    1  UNL1        0.0240
     12 C         140.1095  142.7007  163.2188 C.ar    1  UNL1        0.0859
     13 H         139.1499  145.7148  160.3402 H       1  UNL1        0.1581
     14 C         141.1104  145.9026  156.4434 C.ar    1  UNL1        0.1549
     15 C         140.0378  145.5439  157.4287 C.ar    1  UNL1        0.0734
     16 C         140.6556  145.5113  158.7951 C.ar    1  UNL1        0.1773
     17 N         142.1101  145.8498  158.6544 N.ar    1  UNL1       -0.0620
     18 O         142.3912  146.0916  157.2010 O.2     1  UNL1       -0.3565
     19 C         142.1060  145.1397  154.7326 C.3     1  UNL1        0.0076
     20 C         140.9334  146.0468  154.9609 C.3     1  UNL1        0.0539
     21 C         139.7608  146.9540  155.1893 C.3     1  UNL1        0.0076
     22 C         140.7564  146.1912  153.4785 C.3     1  UNL1        0.0076
     23 O         140.5020  139.7970  166.6341 O.3     1  UNL1       -0.4189
     24 C         140.3772  140.2812  168.0483 C.ar    1  UNL1        0.2314
     25 N         139.1982  139.8712  168.8801 N.ar    1  UNL1       -0.1892
     26 C         139.0734  140.3554  170.2943 C.ar    1  UNL1        0.2012
     27 N         140.1277  141.2496  170.8767 N.ar    1  UNL1       -0.2270
     28 C         141.3066  141.6596  170.0448 C.ar    1  UNL1        0.0785
     29 C         141.4314  141.1754  168.6306 C.ar    1  UNL1        0.0622
     30 C         142.6961  141.7418  168.0566 C.3     1  UNL1        0.1019
     31 N         143.3530  142.5761  169.1161 N.3     1  UNL1       -0.2886
     32 C         142.4942  142.5253  170.3448 C.3     1  UNL1        0.1153
     33 H         143.4393  143.5400  168.7936 H       1  UNL1        0.1239
@<TRIPOS>BOND
     1    19    20    1
     2    20    21    1
     3    20    22    1
     4    20    14    1
     5    14    15   ar
     6    15    16   ar
     7    16     1    1
     8     1     2   am
     9     2     3    2
    10     2     4   am
    11     4     5   ar
    12     5     6   ar
    13     6     7   ar
    14     7     8   ar
    15     8     9   ar
    16     9    23    1
    17    23    24    1
    18    24    25   ar
    19    25    26   ar
    20    26    27   ar
    21    27    28   ar
    22    28    29   ar
    23    29    30    1
    24    30    31    1
    25    31    32    1
    26     9    10   ar
    27    10    11   ar
    28    11    12   ar
    29    16    17   ar
    30    17    18   ar
    31    18    14   ar
    32    12     4   ar
    33    12     7   ar
    34    29    24   ar
    35    32    28    1
    36     1    13    1
    37    31    33    1
@<TRIPOS>MOLECULE
*****
 33 37 0 0 0
SMALL
GASTEIGER

@<TRIPOS>ATOM
      1 N         138.6925  139.7132  164.2377 N.am    1  UNL1       -0.2484
      2 C         139.8098  139.1377  163.4187 C.2     1  UNL1        0.3249
      3 O         141.0190  138.5654  164.0970 O.2     1  UNL1       -0.2488
      4 N         139.7176  139.1345  161.9216 N.ar    1  UNL1       -0.2594
      5 C         138.5767  139.6687  161.1073 C.ar    1  UNL1        0.0858
      6 C         138.9042  139.4608  159.6583 C.ar    1  UNL1        0.0398
      7 C         140.2474  138.7981  159.5771 C.ar    1  UNL1        0.1021
      8 N         141.0777  138.3523  158.4101 N.ar    1  UNL1       -0.2098
      9 C         142.4107  137.7048  158.6419 C.ar    1  UNL1        0.2316
     10 C         142.9134  137.5031  160.0407 C.ar    1  UNL1        0.0597
     11 C         142.0831  137.9489  161.2077 C.ar    1  UNL1        0.0240
     12 C         140.7501  138.5964  160.9758 C.ar    1  UNL1        0.0859
     13 H         137.8988  140.0888  163.7926 H       1  UNL1        0.1581
     14 C         139.4096  140.2944  168.0078 C.ar    1  UNL1        0.1549
     15 C         139.6204  140.6454  166.5648 C.ar    1  UNL1        0.0734
     16 C         138.7847  139.7164  165.7349 C.ar    1  UNL1        0.1773
     17 N         138.0574  138.7913  166.6650 N.ar    1  UNL1       -0.0620
     18 O         138.4436  139.1485  168.0697 O.2     1  UNL1       -0.3565
     19 C         141.1190  141.5200  168.2829 C.3     1  UNL1        0.0076
     20 C         140.0519  140.9705  169.1826 C.3     1  UNL1        0.0539
     21 C         138.9848  140.4210  170.0823 C.3     1  UNL1        0.0076
     22 C         140.6942  141.6466  170.3574 C.3     1  UNL1        0.0076
     23 O         143.2410  137.2590  157.4749 O.3     1  UNL1       -0.4189
     24 C         142.9527  135.9473  156.8068 C.ar    1  UNL1        0.2314
     25 N         143.3535  134.6633  157.4708 N.ar    1  UNL1       -0.1892
     26 C         143.0651  133.3516  156.8027 C.ar    1  UNL1        0.2012
     27 N         142.3759  133.3239  155.4707 N.ar    1  UNL1       -0.2270
     28 C         141.9751  134.6079  154.8068 C.ar    1  UNL1        0.0785
     29 C         142.2635  135.9196  155.4749 C.ar    1  UNL1        0.0622
     30 C         141.7541  137.0147  154.5853 C.3     1  UNL1        0.1019
     31 N         141.1509  136.3799  153.3675 N.3     1  UNL1       -0.2886
     32 C         141.2875  134.8924  153.5044 C.3     1  UNL1        0.1153
     33 H         141.6426  136.6972  152.5321 H       1  UNL1        0.1239
@<TRIPOS>BOND
     1    19    20    1
     2    20    21    1
     3    20    22    1
     4    20    14    1
     5    14    15   ar
     6    15    16   ar
     7    16     1    1
     8     1     2   am
     9     2     3    2
    10     2     4   am
    11     4     5   ar
    12     5     6   ar
    13     6     7   ar
    14     7     8   ar
    15     8     9   ar
    16     9    23    1
    17    23    24    1
    18    24    25   ar
    19    25    26   ar
    20    26    27   ar
    21    27    28   ar
    22    28    29   ar
    23    29    30    1
    24    30    31    1
    25    31    32    1
    26     9    10   ar
    27    10    11   ar
    28    11    12   ar
    29    16    17   ar
    30    17    18   ar
    31    18    14   ar
    32    12     4   ar
    33    12     7   ar
    34    29    24   ar
    35    32    28    1
    36     1    13    1
    37    31    33    1
@<TRIPOS>MOLECULE
*****
 33 37 0 0 0
SMALL
GASTEIGER

@<TRIPOS>ATOM
      1 N         142.7724  143.9989  158.8514 N.am    1  UNL1       -0.2484
      2 C         142.4284  143.9591  160.3110 C.2     1  UNL1        0.3249
      3 O         141.1825  144.6315  160.8063 O.2     1  UNL1       -0.2488
      4 N         143.3303  143.2469  161.2750 N.ar    1  UNL1       -0.2594
      5 C         144.6031  142.5328  160.9285 C.ar    1  UNL1        0.0858
      6 C         145.1771  141.9683  162.1942 C.ar    1  UNL1        0.0398
      7 C         144.2591  142.3336  163.3228 C.ar    1  UNL1        0.1021
      8 N         144.3151  142.0488  164.7945 N.ar    1  UNL1       -0.2098
      9 C         143.2297  142.5541  165.6980 C.ar    1  UNL1        0.2316
     10 C         142.0883  143.3443  165.1299 C.ar    1  UNL1        0.0597
     11 C         142.0323  143.6292  163.6583 C.ar    1  UNL1        0.0240
     12 C         143.1177  143.1238  162.7548 C.ar    1  UNL1        0.0859
     13 H         143.5902  143.5576  158.5263 H       1  UNL1        0.1581
     14 C         140.0218  145.2153  156.3980 C.ar    1  UNL1        0.1549
     15 C         140.5947  144.1723  157.3112 C.ar    1  UNL1        0.0734
     16 C         141.8705  144.7111  157.8874 C.ar    1  UNL1        0.1773
     17 N         142.0861  146.0870  157.3304 N.ar    1  UNL1       -0.0620
     18 O         140.9435  146.3987  156.4099 O.2     1  UNL1       -0.3565
     19 C         138.6037  143.6735  156.0639 C.3     1  UNL1        0.0076
     20 C         138.7503  145.0960  155.6111 C.3     1  UNL1        0.0539
     21 C         138.8970  146.5186  155.1584 C.3     1  UNL1        0.0076
     22 C         137.4789  144.9767  154.8243 C.3     1  UNL1        0.0076
     23 O         143.2856  142.2693  167.1697 O.3     1  UNL1       -0.4189
     24 C         142.1814  141.4949  167.8262 C.ar    1  UNL1        0.2314
     25 N         141.3022  140.5993  167.0046 N.ar    1  UNL1       -0.1892
     26 C         140.1979  139.8249  167.6611 C.ar    1  UNL1        0.2012
     27 N         139.9729  139.9462  169.1392 N.ar    1  UNL1       -0.2270
     28 C         140.8521  140.8418  169.9608 C.ar    1  UNL1        0.0785
     29 C         141.9564  141.6161  169.3042 C.ar    1  UNL1        0.0622
     30 C         142.6568  142.4137  170.3641 C.3     1  UNL1        0.1019
     31 N         141.9855  142.1323  171.6756 N.3     1  UNL1       -0.2886
     32 C         140.8701  141.1608  171.4263 C.3     1  UNL1        0.1153
     33 H         141.6105  142.9972  172.0652 H       1  UNL1        0.1239
@<TRIPOS>BOND
     1    19    20    1
     2    20    21    1
     3    20    22    1
     4    20    14    1
     5    14    15   ar
     6    15    16   ar
     7    16     1    1
     8     1     2   am
     9     2     3    2
    10     2     4   am
    11     4     5   ar
    12     5     6   ar
    13     6     7   ar
    14     7     8   ar
    15     8     9   ar
    16     9    23    1
    17    23    24    1
    18    24    25   ar
    19    25    26   ar
    20    26    27   ar
    21    27    28   ar
    22    28    29   ar
    23    29    30    1
    24    30    31    1
    25    31    32    1
    26     9    10   ar
    27    10    11   ar
    28    11    12   ar
    29    16    17   ar
    30    17    18   ar
    31    18    14   ar
    32    12     4   ar
    33    12     7   ar
    34    29    24   ar
    35    32    28    1
    36     1    13    1
    37    31    33    1
@<TRIPOS>MOLECULE
*****
 33 37 0 0 0
SMALL
GASTEIGER

@<TRIPOS>ATOM
      1 N         139.0371  138.8039  165.3669 N.am    1  UNL1       -0.2484
      2 C         138.8752  139.8577  164.3117 C.2     1  UNL1        0.3249
      3 O         138.6998  141.2940  164.7069 O.2     1  UNL1       -0.2488
      4 N         138.8888  139.4751  162.8614 N.ar    1  UNL1       -0.2594
      5 C         139.0543  138.0871  162.3172 C.ar    1  UNL1        0.0858
      6 C         139.0070  138.1676  160.8201 C.ar    1  UNL1        0.0398
      7 C         138.8123  139.6052  160.4390 C.ar    1  UNL1        0.1021
      8 N         138.6920  140.2829  159.1062 N.ar    1  UNL1       -0.2098
      9 C         138.4987  141.7686  159.0351 C.ar    1  UNL1        0.2316
     10 C         138.4256  142.5767  160.2967 C.ar    1  UNL1        0.0597
     11 C         138.5458  141.8991  161.6294 C.ar    1  UNL1        0.0240
     12 C         138.7392  140.4133  161.7006 C.ar    1  UNL1        0.0859
     13 H         139.1523  137.8612  165.1076 H       1  UNL1        0.1581
     14 C         139.6896  140.0682  168.9782 C.ar    1  UNL1        0.1549
     15 C         140.1269  139.8853  167.5551 C.ar    1  UNL1        0.0734
     16 C         139.0236  139.1865  166.8172 C.ar    1  UNL1        0.1773
     17 N         137.9043  138.9376  167.7843 N.ar    1  UNL1       -0.0620
     18 O         138.3159  139.4825  169.1199 O.2     1  UNL1       -0.3565
     19 C         141.4587  139.5805  170.0422 C.3     1  UNL1        0.0076
     20 C         140.4860  140.7220  170.0682 C.3     1  UNL1        0.0539
     21 C         139.5132  141.8636  170.0942 C.3     1  UNL1        0.0076
     22 C         141.2823  141.3758  171.1583 C.3     1  UNL1        0.0076
     23 O         138.3784  142.4463  157.7023 O.3     1  UNL1       -0.4189
     24 C         137.2965  142.0366  156.7475 C.ar    1  UNL1        0.2314
     25 N         136.4020  140.8791  157.0795 N.ar    1  UNL1       -0.1892
     26 C         135.3201  140.4694  156.1247 C.ar    1  UNL1        0.2012
     27 N         135.1327  141.2172  154.8379 N.ar    1  UNL1       -0.2270
     28 C         136.0272  142.3746  154.5059 C.ar    1  UNL1        0.0785
     29 C         137.1091  142.7843  155.4607 C.ar    1  UNL1        0.0622
     30 C         137.8317  143.9570  154.8669 C.3     1  UNL1        0.1019
     31 N         137.1964  144.2721  153.5451 N.3     1  UNL1       -0.2886
     32 C         136.0812  143.2941  153.3220 C.3     1  UNL1        0.1153
     33 H         137.8871  144.1853  152.7996 H       1  UNL1        0.1239
@<TRIPOS>BOND
     1    19    20    1
     2    20    21    1
     3    20    22    1
     4    20    14    1
     5    14    15   ar
     6    15    16   ar
     7    16     1    1
     8     1     2   am
     9     2     3    2
    10     2     4   am
    11     4     5   ar
    12     5     6   ar
    13     6     7   ar
    14     7     8   ar
    15     8     9   ar
    16     9    23    1
    17    23    24    1
    18    24    25   ar
    19    25    26   ar
    20    26    27   ar
    21    27    28   ar
    22    28    29   ar
    23    29    30    1
    24    30    31    1
    25    31    32    1
    26     9    10   ar
    27    10    11   ar
    28    11    12   ar
    29    16    17   ar
    30    17    18   ar
    31    18    14   ar
    32    12     4   ar
    33    12     7   ar
    34    29    24   ar
    35    32    28    1
    36     1    13    1
    37    31    33    1
@<TRIPOS>MOLECULE
*****
 33 37 0 0 0
SMALL
GASTEIGER

@<TRIPOS>ATOM
      1 N         138.5868  142.8259  158.7615 N.am    1  UNL1       -0.2484
      2 C         138.5281  142.5171  160.2283 C.2     1  UNL1        0.3249
      3 O         137.6650  141.3952  160.7244 O.2     1  UNL1       -0.2488
      4 N         139.3324  143.3304  161.1987 N.ar    1  UNL1       -0.2594
      5 C         140.2358  144.4766  160.8522 C.ar    1  UNL1        0.0858
      6 C         140.8362  144.9947  162.1254 C.ar    1  UNL1        0.0398
      7 C         140.3040  144.1687  163.2587 C.ar    1  UNL1        0.1021
      8 N         140.5456  144.2203  164.7382 N.ar    1  UNL1       -0.2098
      9 C         139.8577  143.2433  165.6450 C.ar    1  UNL1        0.2316
     10 C         138.9283  142.2147  165.0722 C.ar    1  UNL1        0.0597
     11 C         138.6867  142.1630  163.5927 C.ar    1  UNL1        0.0240
     12 C         139.3745  143.1401  162.6860 C.ar    1  UNL1        0.0859
     13 H         139.1533  143.5623  158.4358 H       1  UNL1        0.1581
     14 C         136.4289  141.3738  155.8805 C.ar    1  UNL1        0.1549
     15 C         137.1222  142.5257  156.5457 C.ar    1  UNL1        0.0734
     16 C         137.7825  142.0127  157.7910 C.ar    1  UNL1        0.1773
     17 N         137.4972  140.5438  157.8956 N.ar    1  UNL1       -0.0620
     18 O         136.6607  140.1489  156.7148 O.2     1  UNL1       -0.3565
     19 C         136.1920  142.8044  154.3322 C.3     1  UNL1        0.0076
     20 C         135.6419  141.4358  154.6051 C.3     1  UNL1        0.0539
     21 C         135.0918  140.0672  154.8780 C.3     1  UNL1        0.0076
     22 C         134.8550  141.4978  153.3297 C.3     1  UNL1        0.0076
     23 O         140.0993  143.2949  167.1245 O.3     1  UNL1       -0.4189
     24 C         140.9449  142.2457  167.7834 C.ar    1  UNL1        0.2314
     25 N         141.8186  141.3548  166.9509 N.ar    1  UNL1       -0.1892
     26 C         142.6642  140.3056  167.6097 C.ar    1  UNL1        0.2012
     27 N         142.6362  140.1473  169.1012 N.ar    1  UNL1       -0.2270
     28 C         141.7625  141.0382  169.9336 C.ar    1  UNL1        0.0785
     29 C         140.9168  142.0874  169.2747 C.ar    1  UNL1        0.0622
     30 C         140.1604  142.8138  170.3472 C.3     1  UNL1        0.1019
     31 N         140.5385  142.2136  171.6688 N.3     1  UNL1       -0.2886
     32 C         141.5286  141.1162  171.4132 C.3     1  UNL1        0.1153
     33 H         139.7099  141.8327  172.1257 H       1  UNL1        0.1239
@<TRIPOS>BOND
     1    19    20    1
     2    20    21    1
     3    20    22    1
     4    20    14    1
     5    14    15   ar
     6    15    16   ar
     7    16     1    1
     8     1     2   am
     9     2     3    2
    10     2     4   am
    11     4     5   ar
    12     5     6   ar
    13     6     7   ar
    14     7     8   ar
    15     8     9   ar
    16     9    23    1
    17    23    24    1
    18    24    25   ar
    19    25    26   ar
    20    26    27   ar
    21    27    28   ar
    22    28    29   ar
    23    29    30    1
    24    30    31    1
    25    31    32    1
    26     9    10   ar
    27    10    11   ar
    28    11    12   ar
    29    16    17   ar
    30    17    18   ar
    31    18    14   ar
    32    12     4   ar
    33    12     7   ar
    34    29    24   ar
    35    32    28    1
    36     1    13    1
    37    31    33    1
@<TRIPOS>MOLECULE
*****
 33 37 0 0 0
SMALL
GASTEIGER

@<TRIPOS>ATOM
      1 N         138.9225  138.8153  165.4596 N.am    1  UNL1       -0.2484
      2 C         138.7734  139.8335  164.3681 C.2     1  UNL1        0.3249
      3 O         138.5942  141.2821  164.7133 O.2     1  UNL1       -0.2488
      4 N         138.8035  139.4029  162.9316 N.ar    1  UNL1       -0.2594
      5 C         138.9745  137.9976  162.4358 C.ar    1  UNL1        0.0858
      6 C         138.9446  138.0282  160.9364 C.ar    1  UNL1        0.0398
      7 C         138.7550  139.4525  160.5055 C.ar    1  UNL1        0.1021
      8 N         138.6505  140.0855  159.1497 N.ar    1  UNL1       -0.2098
      9 C         138.4588  141.5681  159.0270 C.ar    1  UNL1        0.2316
     10 C         138.3716  142.4177  160.2601 C.ar    1  UNL1        0.0597
     11 C         138.4761  141.7847  161.6159 C.ar    1  UNL1        0.0240
     12 C         138.6678  140.3021  161.7386 C.ar    1  UNL1        0.0859
     13 H         139.0402  137.8645  165.2331 H       1  UNL1        0.1581
     14 C         139.4812  140.2943  169.0044 C.ar    1  UNL1        0.1549
     15 C         139.9022  140.1233  167.5749 C.ar    1  UNL1        0.0734
     16 C         138.8925  139.2459  166.8962 C.ar    1  UNL1        0.1773
     17 N         137.8474  138.8747  167.9061 N.ar    1  UNL1       -0.0620
     18 O         138.2113  139.5227  169.2091 O.2     1  UNL1       -0.3565
     19 C         140.2075  139.9062  170.9593 C.3     1  UNL1        0.0076
     20 C         140.2032  141.0963  170.0463 C.3     1  UNL1        0.0539
     21 C         140.1989  142.2864  169.1331 C.3     1  UNL1        0.0076
     22 C         140.9253  141.8982  171.0881 C.3     1  UNL1        0.0076
     23 O         138.3543  142.2011  157.6711 O.3     1  UNL1       -0.4189
     24 C         139.3211  143.2748  157.2682 C.ar    1  UNL1        0.2314
     25 N         140.6955  143.3102  157.8682 N.ar    1  UNL1       -0.1892
     26 C         141.6624  144.3839  157.4653 C.ar    1  UNL1        0.2012
     27 N         141.2549  145.4222  156.4623 N.ar    1  UNL1       -0.2270
     28 C         139.8806  145.3869  155.8624 C.ar    1  UNL1        0.0785
     29 C         138.9137  144.3132  156.2653 C.ar    1  UNL1        0.0622
     30 C         137.6366  144.5321  155.5096 C.3     1  UNL1        0.1019
     31 N         137.8141  145.7412  154.6397 N.3     1  UNL1       -0.2886
     32 C         139.2010  146.2694  154.8577 C.3     1  UNL1        0.1153
     33 H         137.1288  146.4531  154.8925 H       1  UNL1        0.1239
@<TRIPOS>BOND
     1    19    20    1
     2    20    21    1
     3    20    22    1
     4    20    14    1
     5    14    15   ar
     6    15    16   ar
     7    16     1    1
     8     1     2   am
     9     2     3    2
    10     2     4   am
    11     4     5   ar
    12     5     6   ar
    13     6     7   ar
    14     7     8   ar
    15     8     9   ar
    16     9    23    1
    17    23    24    1
    18    24    25   ar
    19    25    26   ar
    20    26    27   ar
    21    27    28   ar
    22    28    29   ar
    23    29    30    1
    24    30    31    1
    25    31    32    1
    26     9    10   ar
    27    10    11   ar
    28    11    12   ar
    29    16    17   ar
    30    17    18   ar
    31    18    14   ar
    32    12     4   ar
    33    12     7   ar
    34    29    24   ar
    35    32    28    1
    36     1    13    1
    37    31    33    1
@<TRIPOS>MOLECULE
*****
 33 37 0 0 0
SMALL
GASTEIGER

@<TRIPOS>ATOM
      1 N         143.2899  138.2089  156.8258 N.am    1  UNL1       -0.2484
      2 C         143.0499  138.7382  158.2088 C.2     1  UNL1        0.3249
      3 O         142.2437  137.9383  159.1884 O.2     1  UNL1       -0.2488
      4 N         143.6162  140.0675  158.6118 N.ar    1  UNL1       -0.2594
      5 C         144.4378  140.9752  157.7452 C.ar    1  UNL1        0.0858
      6 C         144.7897  142.1910  158.5501 C.ar    1  UNL1        0.0398
      7 C         144.1856  142.0348  159.9142 C.ar    1  UNL1        0.1021
      8 N         144.2023  142.9180  161.1264 N.ar    1  UNL1       -0.2098
      9 C         143.4936  142.4888  162.3768 C.ar    1  UNL1        0.2316
     10 C         142.7684  141.1763  162.4150 C.ar    1  UNL1        0.0597
     11 C         142.7518  140.2931  161.2027 C.ar    1  UNL1        0.0240
     12 C         143.4604  140.7223  159.9523 C.ar    1  UNL1        0.0859
     13 H         143.8191  138.7340  156.1828 H       1  UNL1        0.1581
     14 C         142.3917  134.4867  156.1908 C.ar    1  UNL1        0.1549
     15 C         143.2637  135.5361  156.8140 C.ar    1  UNL1        0.0734
     16 C         142.7236  136.8797  156.4228 C.ar    1  UNL1        0.1773
     17 N         141.5179  136.6608  155.5577 N.ar    1  UNL1       -0.0620
     18 O         141.3128  135.1818  155.4144 O.2     1  UNL1       -0.3565
     19 C         143.6918  133.2212  157.2899 C.3     1  UNL1        0.0076
     20 C         142.5677  133.0028  156.3211 C.3     1  UNL1        0.0539
     21 C         141.4435  132.7844  155.3521 C.3     1  UNL1        0.0076
     22 C         142.7436  131.5189  156.4513 C.3     1  UNL1        0.0076
     23 O         143.5103  143.3720  163.5892 O.3     1  UNL1       -0.4189
     24 C         142.4415  143.2336  164.6326 C.ar    1  UNL1        0.2314
     25 N         142.6820  142.3825  165.8442 N.ar    1  UNL1       -0.1892
     26 C         141.6133  142.2441  166.8876 C.ar    1  UNL1        0.2012
     27 N         140.3041  142.9568  166.7194 N.ar    1  UNL1       -0.2270
     28 C         140.0637  143.8079  165.5079 C.ar    1  UNL1        0.0785
     29 C         141.1324  143.9462  164.4644 C.ar    1  UNL1        0.0622
     30 C         140.6118  144.8476  163.3844 C.3     1  UNL1        0.1019
     31 N         139.2213  145.2663  163.7603 N.3     1  UNL1       -0.2886
     32 C         138.8826  144.6237  165.0727 C.3     1  UNL1        0.1153
     33 H         138.5622  144.9601  163.0446 H       1  UNL1        0.1239
@<TRIPOS>BOND
     1    19    20    1
     2    20    21    1
     3    20    22    1
     4    20    14    1
     5    14    15   ar
     6    15    16   ar
     7    16     1    1
     8     1     2   am
     9     2     3    2
    10     2     4   am
    11     4     5   ar
    12     5     6   ar
    13     6     7   ar
    14     7     8   ar
    15     8     9   ar
    16     9    23    1
    17    23    24    1
    18    24    25   ar
    19    25    26   ar
    20    26    27   ar
    21    27    28   ar
    22    28    29   ar
    23    29    30    1
    24    30    31    1
    25    31    32    1
    26     9    10   ar
    27    10    11   ar
    28    11    12   ar
    29    16    17   ar
    30    17    18   ar
    31    18    14   ar
    32    12     4   ar
    33    12     7   ar
    34    29    24   ar
    35    32    28    1
    36     1    13    1
    37    31    33    1
@<TRIPOS>MOLECULE
*****
 33 37 0 0 0
SMALL
GASTEIGER

@<TRIPOS>ATOM
      1 N         142.9133  142.8882  170.8466 N.am    1  UNL1       -0.2484
      2 C         142.5373  142.2208  169.5568 C.2     1  UNL1        0.3249
      3 O         143.4616  142.2934  168.3777 O.2     1  UNL1       -0.2488
      4 N         141.2371  141.4810  169.4463 N.ar    1  UNL1       -0.2594
      5 C         140.2168  141.3240  170.5345 C.ar    1  UNL1        0.0858
      6 C         139.0781  140.5143  169.9889 C.ar    1  UNL1        0.0398
      7 C         139.3947  140.1709  168.5635 C.ar    1  UNL1        0.1021
      8 N         138.6403  139.3914  167.5275 N.ar    1  UNL1       -0.2098
      9 C         139.2203  139.2093  166.1563 C.ar    1  UNL1        0.2316
     10 C         140.5547  139.8068  165.8209 C.ar    1  UNL1        0.0597
     11 C         141.3090  140.5864  166.8568 C.ar    1  UNL1        0.0240
     12 C         140.7290  140.7684  168.2281 C.ar    1  UNL1        0.0859
     13 H         142.3066  142.8406  171.6206 H       1  UNL1        0.1581
     14 C         145.9155  145.2132  171.6505 C.ar    1  UNL1        0.1549
     15 C         144.4944  144.7857  171.8686 C.ar    1  UNL1        0.0734
     16 C         144.2134  143.6280  170.9572 C.ar    1  UNL1        0.1773
     17 N         145.4609  143.3399  170.1757 N.ar    1  UNL1       -0.0620
     18 O         146.5129  144.3197  170.6041 O.2     1  UNL1       -0.3565
     19 C         147.4073  145.3433  173.1529 C.3     1  UNL1        0.0076
     20 C         146.6162  146.3369  172.3549 C.3     1  UNL1        0.0539
     21 C         145.8251  147.3305  171.5567 C.3     1  UNL1        0.0076
     22 C         147.3169  147.4606  173.0592 C.3     1  UNL1        0.0076
     23 O         138.4659  138.4298  165.1202 O.3     1  UNL1       -0.4189
     24 C         138.7122  138.6852  163.6628 C.ar    1  UNL1        0.2314
     25 N         139.4070  137.6513  162.8271 N.ar    1  UNL1       -0.1892
     26 C         139.6533  137.9068  161.3697 C.ar    1  UNL1        0.2012
     27 N         139.2047  139.1961  160.7480 N.ar    1  UNL1       -0.2270
     28 C         138.5099  140.2299  161.5837 C.ar    1  UNL1        0.0785
     29 C         138.2636  139.9745  163.0411 C.ar    1  UNL1        0.0622
     30 C         137.5597  141.1711  163.6089 C.3     1  UNL1        0.1019
     31 N         137.3709  142.1662  162.5025 N.3     1  UNL1       -0.2886
     32 C         137.9581  141.5845  161.2508 C.3     1  UNL1        0.1153
     33 H         137.8469  143.0376  162.7357 H       1  UNL1        0.1239
@<TRIPOS>BOND
     1    19    20    1
     2    20    21    1
     3    20    22    1
     4    20    14    1
     5    14    15   ar
     6    15    16   ar
     7    16     1    1
     8     1     2   am
     9     2     3    2
    10     2     4   am
    11     4     5   ar
    12     5     6   ar
    13     6     7   ar
    14     7     8   ar
    15     8     9   ar
    16     9    23    1
    17    23    24    1
    18    24    25   ar
    19    25    26   ar
    20    26    27   ar
    21    27    28   ar
    22    28    29   ar
    23    29    30    1
    24    30    31    1
    25    31    32    1
    26     9    10   ar
    27    10    11   ar
    28    11    12   ar
    29    16    17   ar
    30    17    18   ar
    31    18    14   ar
    32    12     4   ar
    33    12     7   ar
    34    29    24   ar
    35    32    28    1
    36     1    13    1
    37    31    33    1
