@<TRIPOS>MOLECULE
*****
 40 45 0 0 0
SMALL
GASTEIGER

@<TRIPOS>ATOM
      1 C         142.7652  140.5257  158.2478 C.3     1  UNL1        0.0280
      2 C         143.5094  141.5257  159.0821 C.3     1  UNL1        0.0584
      3 C         144.6504  142.2971  158.4882 C.3     1  UNL1        0.0174
      4 N         143.1125  141.7542  160.5105 N.3     1  UNL1       -0.2733
      5 C         141.6598  142.0469  160.7434 C.3     1  UNL1        0.0768
      6 C         140.9565  142.3175  162.0404 C.3     1  UNL1        0.0433
      7 C         141.5322  142.3622  163.4248 C.ar    1  UNL1       -0.0250
      8 C         140.4778  142.6675  164.4471 C.ar    1  UNL1       -0.0070
      9 C         140.8445  142.7580  165.8988 C.ar    1  UNL1        0.0017
     10 C         142.2656  142.5431  166.3282 C.ar    1  UNL1        0.0509
     11 C         143.3200  142.2378  165.3058 C.ar    1  UNL1       -0.0003
     12 C         142.9533  142.1473  163.8542 C.ar    1  UNL1       -0.0246
     13 C         144.1497  141.8347  163.0052 C.3     1  UNL1        0.0433
     14 C         144.2204  141.6597  161.5171 C.3     1  UNL1        0.0768
     15 C         142.3272  142.6940  167.8192 C.2     1  UNL1        0.2489
     16 O         143.5561  142.5603  168.6690 O.2     1  UNL1       -0.2699
     17 N         140.9442  143.0022  168.3115 N.am    1  UNL1       -0.2736
     18 C         140.0279  143.0417  167.1245 C.3     1  UNL1        0.1205
     19 C         140.5471  143.2307  169.7398 C.3     1  UNL1        0.0761
     20 C         140.3954  142.0652  170.6718 C.3     1  UNL1        0.0215
     21 C         140.3018  144.6248  170.2361 C.3     1  UNL1        0.0215
     22 C         143.2672  139.1162  158.1409 C.3     1  UNL1        0.0665
     23 S         142.6466  138.0338  158.9735 S.3     1  UNL1       -0.0756
     24 C         141.6055  138.6471  162.6620 C.ar    1  UNL1        0.1669
     25 N         143.0567  138.3038  162.8237 N.ar    1  UNL1       -0.1282
     26 N         143.6234  138.0323  161.4616 N.ar    1  UNL1       -0.1221
     27 C         142.5223  138.2078  160.4581 C.ar    1  UNL1        0.1932
     28 N         141.2752  138.5877  161.2001 N.ar    1  UNL1       -0.2884
     29 C         139.9334  138.8604  160.5875 C.3     1  UNL1        0.1340
     30 C         142.6071  139.2754  169.4334 C.3     1  UNL1        0.0521
     31 C         142.1184  139.2039  168.0171 C.ar    1  UNL1        0.0593
     32 C         143.0719  138.8615  166.9110 C.ar    1  UNL1        0.0147
     33 C         142.5832  138.7900  165.4947 C.ar    1  UNL1        0.0028
     34 C         141.1408  139.0610  165.1845 C.ar    1  UNL1        0.0206
     35 C         140.6520  138.9896  163.7681 C.ar    1  UNL1        0.0374
     36 C         139.2096  139.2606  163.4579 C.ar    1  UNL1        0.0031
     37 C         138.2561  139.6031  164.5640 C.ar    1  UNL1        0.0016
     38 C         138.7449  139.6746  165.9804 C.ar    1  UNL1        0.0191
     39 C         140.1873  139.4035  166.2905 C.ar    1  UNL1        0.0810
     40 N         140.6761  139.4750  167.7069 N.ar    1  UNL1       -0.2497
@<TRIPOS>BOND
     1    30    31    1
     2    31    32   ar
     3    32    33   ar
     4    33    34   ar
     5    34    35   ar
     6    35    24    1
     7    24    25   ar
     8    25    26   ar
     9    26    27   ar
    10    27    23    1
    11    23    22    1
    12    22     1    1
    13     1     2    1
    14     2     3    1
    15     2     4    1
    16     4     5    1
    17     5     6    1
    18     6     7    1
    19     7     8   ar
    20     8     9   ar
    21     9    10   ar
    22    10    11   ar
    23    11    12   ar
    24    12    13    1
    25    13    14    1
    26    10    15    1
    27    15    16    2
    28    15    17   am
    29    17    19    1
    30    19    20    1
    31    19    21    1
    32    17    18    1
    33    27    28   ar
    34    28    29    1
    35    35    36   ar
    36    36    37   ar
    37    37    38   ar
    38    38    39   ar
    39    39    40   ar
    40    40    31   ar
    41    39    34   ar
    42    28    24   ar
    43    14     4    1
    44    12     7   ar
    45    18     9    1
@<TRIPOS>MOLECULE
*****
 40 45 0 0 0
SMALL
GASTEIGER

@<TRIPOS>ATOM
      1 C         141.3163  142.4031  170.4749 C.3     1  UNL1        0.0280
      2 C         142.4134  142.6396  169.4797 C.3     1  UNL1        0.0584
      3 C         143.8205  142.8564  169.9519 C.3     1  UNL1        0.0174
      4 N         142.1034  142.6592  168.0122 N.3     1  UNL1       -0.2733
      5 C         143.2582  142.3712  167.0992 C.3     1  UNL1        0.0768
      6 C         143.2744  142.3171  165.6001 C.3     1  UNL1        0.0433
      7 C         142.1399  142.5376  164.6441 C.ar    1  UNL1       -0.0250
      8 C         142.5869  142.3900  163.2199 C.ar    1  UNL1       -0.0070
      9 C         141.6030  142.5715  162.1023 C.ar    1  UNL1        0.0017
     10 C         140.1720  142.9006  162.4089 C.ar    1  UNL1        0.0509
     11 C         139.7249  143.0481  163.8332 C.ar    1  UNL1       -0.0003
     12 C         140.7089  142.8666  164.9507 C.ar    1  UNL1       -0.0246
     13 C         140.0590  143.0564  166.2893 C.3     1  UNL1        0.0433
     14 C         140.6797  142.9641  167.6517 C.3     1  UNL1        0.0768
     15 C         139.4350  143.0209  161.1081 C.2     1  UNL1        0.2489
     16 O         137.9782  143.3399  160.9463 O.2     1  UNL1       -0.2699
     17 N         140.4104  142.7662  159.9974 N.am    1  UNL1       -0.2736
     18 C         141.7503  142.4885  160.6119 C.3     1  UNL1        0.1205
     19 C         140.1005  142.7858  158.5299 C.3     1  UNL1        0.0761
     20 C         140.2834  144.0487  157.7415 C.3     1  UNL1        0.0215
     21 C         139.6076  141.5424  157.8509 C.3     1  UNL1        0.0215
     22 C         141.3046  141.1464  171.2939 C.3     1  UNL1        0.0665
     23 S         140.5599  139.9395  170.8052 S.3     1  UNL1       -0.0756
     24 C         140.4442  139.4508  166.9565 C.ar    1  UNL1        0.1669
     25 N         139.0003  139.7238  167.2575 N.ar    1  UNL1       -0.1282
     26 N         138.8679  139.9401  168.7359 N.ar    1  UNL1       -0.1221
     27 C         140.2300  139.8008  169.3486 C.ar    1  UNL1        0.1932
     28 N         141.2042  139.4984  168.2488 N.ar    1  UNL1       -0.2884
     29 C         142.6794  139.2816  168.4127 C.3     1  UNL1        0.1340
     30 C         137.6133  139.7554  160.7000 C.3     1  UNL1        0.0521
     31 C         138.4664  139.6111  161.9253 C.ar    1  UNL1        0.0593
     32 C         137.8846  139.8838  163.2807 C.ar    1  UNL1        0.0147
     33 C         138.7378  139.7395  164.5060 C.ar    1  UNL1        0.0028
     34 C         140.1728  139.3224  164.3757 C.ar    1  UNL1        0.0206
     35 C         141.0260  139.1780  165.6010 C.ar    1  UNL1        0.0374
     36 C         142.4610  138.7610  165.4709 C.ar    1  UNL1        0.0031
     37 C         143.0427  138.4882  164.1155 C.ar    1  UNL1        0.0016
     38 C         142.1895  138.6326  162.8902 C.ar    1  UNL1        0.0191
     39 C         140.7545  139.0497  163.0204 C.ar    1  UNL1        0.0810
     40 N         139.9013  139.1940  161.7951 N.ar    1  UNL1       -0.2497
@<TRIPOS>BOND
     1    30    31    1
     2    31    32   ar
     3    32    33   ar
     4    33    34   ar
     5    34    35   ar
     6    35    24    1
     7    24    25   ar
     8    25    26   ar
     9    26    27   ar
    10    27    23    1
    11    23    22    1
    12    22     1    1
    13     1     2    1
    14     2     3    1
    15     2     4    1
    16     4     5    1
    17     5     6    1
    18     6     7    1
    19     7     8   ar
    20     8     9   ar
    21     9    10   ar
    22    10    11   ar
    23    11    12   ar
    24    12    13    1
    25    13    14    1
    26    10    15    1
    27    15    16    2
    28    15    17   am
    29    17    19    1
    30    19    20    1
    31    19    21    1
    32    17    18    1
    33    27    28   ar
    34    28    29    1
    35    35    36   ar
    36    36    37   ar
    37    37    38   ar
    38    38    39   ar
    39    39    40   ar
    40    40    31   ar
    41    39    34   ar
    42    28    24   ar
    43    14     4    1
    44    12     7   ar
    45    18     9    1
@<TRIPOS>MOLECULE
*****
 40 45 0 0 0
SMALL
GASTEIGER

@<TRIPOS>ATOM
      1 C         143.2735  142.1015  157.4710 C.3     1  UNL1        0.0280
      2 C         144.2170  142.3837  158.6024 C.3     1  UNL1        0.0584
      3 C         145.6629  142.6662  158.3206 C.3     1  UNL1        0.0174
      4 N         143.7144  142.3834  160.0157 N.3     1  UNL1       -0.2733
      5 C         142.2288  142.2541  160.1781 C.3     1  UNL1        0.0768
      6 C         141.4257  142.2219  161.4447 C.3     1  UNL1        0.0433
      7 C         141.9099  142.3111  162.8615 C.ar    1  UNL1       -0.0250
      8 C         140.7712  142.2392  163.8353 C.ar    1  UNL1       -0.0070
      9 C         141.0394  142.3107  165.3094 C.ar    1  UNL1        0.0017
     10 C         142.4462  142.4541  165.8098 C.ar    1  UNL1        0.0509
     11 C         143.5849  142.5261  164.8360 C.ar    1  UNL1       -0.0003
     12 C         143.3167  142.4546  163.3619 C.ar    1  UNL1       -0.0246
     13 C         144.5868  142.5442  162.5689 C.3     1  UNL1        0.0433
     14 C         144.7637  142.5125  161.0797 C.3     1  UNL1        0.0768
     15 C         142.4029  142.4982  167.3085 C.2     1  UNL1        0.2489
     16 O         143.5856  142.6345  168.2211 O.2     1  UNL1       -0.2699
     17 N         140.9694  142.3820  167.7344 N.am    1  UNL1       -0.2736
     18 C         140.1267  142.2661  166.4989 C.3     1  UNL1        0.1205
     19 C         140.4667  142.3817  169.1477 C.3     1  UNL1        0.0761
     20 C         140.6218  143.6068  169.9992 C.3     1  UNL1        0.0215
     21 C         139.8089  141.1562  169.7095 C.3     1  UNL1        0.0215
     22 C         143.4776  140.8914  156.6083 C.3     1  UNL1        0.0665
     23 S         142.5793  139.7001  156.7627 S.3     1  UNL1       -0.0756
     24 C         141.5177  138.4326  160.2743 C.ar    1  UNL1        0.1669
     25 N         142.8042  137.6877  160.0740 N.ar    1  UNL1       -0.1282
     26 N         143.3585  138.0719  158.7341 N.ar    1  UNL1       -0.1221
     27 C         142.4145  139.0542  158.1063 C.ar    1  UNL1        0.1932
     28 N         141.2769  139.2770  159.0583 N.ar    1  UNL1       -0.2884
     29 C         140.1042  140.1850  158.8334 C.3     1  UNL1        0.1340
     30 C         142.9579  138.9437  166.9761 C.3     1  UNL1        0.0521
     31 C         142.3755  138.7947  165.6019 C.ar    1  UNL1        0.0593
     32 C         143.2650  138.8795  164.3971 C.ar    1  UNL1        0.0147
     33 C         142.6826  138.7305  163.0228 C.ar    1  UNL1        0.0028
     34 C         141.2106  138.4968  162.8534 C.ar    1  UNL1        0.0206
     35 C         140.6282  138.3478  161.4791 C.ar    1  UNL1        0.0374
     36 C         139.1562  138.1140  161.3096 C.ar    1  UNL1        0.0031
     37 C         138.2667  138.0292  162.5144 C.ar    1  UNL1        0.0016
     38 C         138.8491  138.1782  163.8887 C.ar    1  UNL1        0.0191
     39 C         140.3211  138.4120  164.0581 C.ar    1  UNL1        0.0810
     40 N         140.9036  138.5610  165.4324 N.ar    1  UNL1       -0.2497
@<TRIPOS>BOND
     1    30    31    1
     2    31    32   ar
     3    32    33   ar
     4    33    34   ar
     5    34    35   ar
     6    35    24    1
     7    24    25   ar
     8    25    26   ar
     9    26    27   ar
    10    27    23    1
    11    23    22    1
    12    22     1    1
    13     1     2    1
    14     2     3    1
    15     2     4    1
    16     4     5    1
    17     5     6    1
    18     6     7    1
    19     7     8   ar
    20     8     9   ar
    21     9    10   ar
    22    10    11   ar
    23    11    12   ar
    24    12    13    1
    25    13    14    1
    26    10    15    1
    27    15    16    2
    28    15    17   am
    29    17    19    1
    30    19    20    1
    31    19    21    1
    32    17    18    1
    33    27    28   ar
    34    28    29    1
    35    35    36   ar
    36    36    37   ar
    37    37    38   ar
    38    38    39   ar
    39    39    40   ar
    40    40    31   ar
    41    39    34   ar
    42    28    24   ar
    43    14     4    1
    44    12     7   ar
    45    18     9    1
@<TRIPOS>MOLECULE
*****
 40 45 0 0 0
SMALL
GASTEIGER

@<TRIPOS>ATOM
      1 C         139.6869  138.5220  158.4545 C.3     1  UNL1        0.0280
      2 C         138.9819  139.6876  159.0826 C.3     1  UNL1        0.0584
      3 C         138.1077  140.5746  158.2465 C.3     1  UNL1        0.0174
      4 N         139.1511  139.9661  160.5467 N.3     1  UNL1       -0.2733
      5 C         139.9932  141.1595  160.8891 C.3     1  UNL1        0.0768
      6 C         140.3480  141.6959  162.2443 C.3     1  UNL1        0.0433
      7 C         139.9485  141.1716  163.5916 C.ar    1  UNL1       -0.0250
      8 C         140.5216  142.0080  164.6971 C.ar    1  UNL1       -0.0070
      9 C         140.2417  141.6542  166.1276 C.ar    1  UNL1        0.0017
     10 C         139.3887  140.4639  166.4527 C.ar    1  UNL1        0.0509
     11 C         138.8156  139.6275  165.3472 C.ar    1  UNL1       -0.0003
     12 C         139.0955  139.9813  163.9167 C.ar    1  UNL1       -0.0246
     13 C         138.4313  139.0214  162.9747 C.3     1  UNL1        0.0433
     14 C         138.4561  139.0147  161.4749 C.3     1  UNL1        0.0768
     15 C         139.2861  140.3610  167.9456 C.2     1  UNL1        0.2489
     16 O         138.5272  139.3151  168.7073 O.2     1  UNL1       -0.2699
     17 N         140.0757  141.4877  168.5432 N.am    1  UNL1       -0.2736
     18 C         140.6663  142.2869  167.4196 C.3     1  UNL1        0.1205
     19 C         140.2450  141.7663  170.0074 C.3     1  UNL1        0.0761
     20 C         139.8366  143.0954  170.5701 C.3     1  UNL1        0.0215
     21 C         140.8228  140.7157  170.9088 C.3     1  UNL1        0.0215
     22 C         140.7664  138.7565  157.4398 C.3     1  UNL1        0.0665
     23 S         142.1640  138.2827  157.7084 S.3     1  UNL1       -0.0756
     24 C         143.5807  139.2895  161.1789 C.ar    1  UNL1        0.1669
     25 N         143.6613  137.7936  161.2559 N.ar    1  UNL1       -0.1282
     26 N         143.1404  137.2344  159.9651 N.ar    1  UNL1       -0.1221
     27 C         142.7379  138.3846  159.0905 C.ar    1  UNL1        0.1932
     28 N         143.0100  139.6547  159.8408 N.ar    1  UNL1       -0.2884
     29 C         142.7559  141.0459  159.3405 C.3     1  UNL1        0.1340
     30 C         142.6213  139.1322  167.9837 C.3     1  UNL1        0.0521
     31 C         142.9653  139.4119  166.5508 C.ar    1  UNL1        0.0593
     32 C         142.5485  138.4501  165.4778 C.ar    1  UNL1        0.0147
     33 C         142.8925  138.7299  164.0449 C.ar    1  UNL1        0.0028
     34 C         143.6535  139.9715  163.6849 C.ar    1  UNL1        0.0206
     35 C         143.9975  140.2513  162.2519 C.ar    1  UNL1        0.0374
     36 C         144.7585  141.4928  161.8919 C.ar    1  UNL1        0.0031
     37 C         145.1753  142.4545  162.9649 C.ar    1  UNL1        0.0016
     38 C         144.8313  142.1748  164.3979 C.ar    1  UNL1        0.0191
     39 C         144.0703  140.9332  164.7578 C.ar    1  UNL1        0.0810
     40 N         143.7263  140.6534  166.1908 N.ar    1  UNL1       -0.2497
@<TRIPOS>BOND
     1    30    31    1
     2    31    32   ar
     3    32    33   ar
     4    33    34   ar
     5    34    35   ar
     6    35    24    1
     7    24    25   ar
     8    25    26   ar
     9    26    27   ar
    10    27    23    1
    11    23    22    1
    12    22     1    1
    13     1     2    1
    14     2     3    1
    15     2     4    1
    16     4     5    1
    17     5     6    1
    18     6     7    1
    19     7     8   ar
    20     8     9   ar
    21     9    10   ar
    22    10    11   ar
    23    11    12   ar
    24    12    13    1
    25    13    14    1
    26    10    15    1
    27    15    16    2
    28    15    17   am
    29    17    19    1
    30    19    20    1
    31    19    21    1
    32    17    18    1
    33    27    28   ar
    34    28    29    1
    35    35    36   ar
    36    36    37   ar
    37    37    38   ar
    38    38    39   ar
    39    39    40   ar
    40    40    31   ar
    41    39    34   ar
    42    28    24   ar
    43    14     4    1
    44    12     7   ar
    45    18     9    1
@<TRIPOS>MOLECULE
*****
 40 45 0 0 0
SMALL
GASTEIGER

@<TRIPOS>ATOM
      1 C         140.9661  144.7511  158.7292 C.3     1  UNL1        0.0280
      2 C         142.0917  143.9377  159.2960 C.3     1  UNL1        0.0584
      3 C         143.2969  143.6366  158.4552 C.3     1  UNL1        0.0174
      4 N         142.0121  143.4254  160.7035 N.3     1  UNL1       -0.2733
      5 C         141.0924  144.1780  161.6189 C.3     1  UNL1        0.0768
      6 C         140.7962  143.9193  163.0665 C.3     1  UNL1        0.0433
      7 C         141.3465  142.8443  163.9561 C.ar    1  UNL1       -0.0250
      8 C         140.7863  142.9416  165.3442 C.ar    1  UNL1       -0.0070
      9 C         141.2085  141.9571  166.3941 C.ar    1  UNL1        0.0017
     10 C         142.1909  140.8751  166.0560 C.ar    1  UNL1        0.0509
     11 C         142.7511  140.7778  164.6679 C.ar    1  UNL1       -0.0003
     12 C         142.3289  141.7623  163.6180 C.ar    1  UNL1       -0.0246
     13 C         143.0036  141.4882  162.3067 C.3     1  UNL1        0.0433
     14 C         142.8626  142.2284  161.0096 C.3     1  UNL1        0.0768
     15 C         142.4188  140.0536  167.2902 C.2     1  UNL1        0.2489
     16 O         143.3285  138.8663  167.4035 O.2     1  UNL1       -0.2699
     17 N         141.5773  140.6278  168.3911 N.am    1  UNL1       -0.2736
     18 C         140.8293  141.8042  167.8373 C.3     1  UNL1        0.1205
     19 C         141.4976  140.1156  169.7987 C.3     1  UNL1        0.0761
     20 C         142.7487  139.7168  170.5237 C.3     1  UNL1        0.0215
     21 C         140.1667  140.0022  170.4813 C.3     1  UNL1        0.0215
     22 C         140.1874  144.2380  157.5543 C.3     1  UNL1        0.0665
     23 S         139.1470  143.1754  157.7502 S.3     1  UNL1       -0.0756
     24 C         139.3751  140.8885  160.8780 C.ar    1  UNL1        0.1669
     25 N         138.3445  141.8841  161.3215 N.ar    1  UNL1       -0.1282
     26 N         138.1336  142.8620  160.2037 N.ar    1  UNL1       -0.1221
     27 C         139.0339  142.4708  159.0695 C.ar    1  UNL1        0.1932
     28 N         139.8011  141.2511  159.4863 N.ar    1  UNL1       -0.2884
     29 C         140.8163  140.5220  158.6568 C.3     1  UNL1        0.1340
     30 C         138.1218  139.0243  167.3745 C.3     1  UNL1        0.0521
     31 C         138.5637  139.2015  165.9521 C.ar    1  UNL1        0.0593
     32 C         138.0494  140.3569  165.1454 C.ar    1  UNL1        0.0147
     33 C         138.4913  140.5341  163.7229 C.ar    1  UNL1        0.0028
     34 C         139.4475  139.5560  163.1072 C.ar    1  UNL1        0.0206
     35 C         139.8894  139.7332  161.6847 C.ar    1  UNL1        0.0374
     36 C         140.8456  138.7552  161.0690 C.ar    1  UNL1        0.0031
     37 C         141.3598  137.5998  161.8757 C.ar    1  UNL1        0.0016
     38 C         140.9179  137.4226  163.2982 C.ar    1  UNL1        0.0191
     39 C         139.9617  138.4007  163.9139 C.ar    1  UNL1        0.0810
     40 N         139.5198  138.2235  165.3364 N.ar    1  UNL1       -0.2497
@<TRIPOS>BOND
     1    30    31    1
     2    31    32   ar
     3    32    33   ar
     4    33    34   ar
     5    34    35   ar
     6    35    24    1
     7    24    25   ar
     8    25    26   ar
     9    26    27   ar
    10    27    23    1
    11    23    22    1
    12    22     1    1
    13     1     2    1
    14     2     3    1
    15     2     4    1
    16     4     5    1
    17     5     6    1
    18     6     7    1
    19     7     8   ar
    20     8     9   ar
    21     9    10   ar
    22    10    11   ar
    23    11    12   ar
    24    12    13    1
    25    13    14    1
    26    10    15    1
    27    15    16    2
    28    15    17   am
    29    17    19    1
    30    19    20    1
    31    19    21    1
    32    17    18    1
    33    27    28   ar
    34    28    29    1
    35    35    36   ar
    36    36    37   ar
    37    37    38   ar
    38    38    39   ar
    39    39    40   ar
    40    40    31   ar
    41    39    34   ar
    42    28    24   ar
    43    14     4    1
    44    12     7   ar
    45    18     9    1
@<TRIPOS>MOLECULE
*****
 40 45 0 0 0
SMALL
GASTEIGER

@<TRIPOS>ATOM
      1 C         139.4277  143.5365  157.9146 C.3     1  UNL1        0.0280
      2 C         139.9813  144.3695  159.0324 C.3     1  UNL1        0.0584
      3 C         140.4098  145.7834  158.7729 C.3     1  UNL1        0.0174
      4 N         140.1065  143.7887  160.4097 N.3     1  UNL1       -0.2733
      5 C         138.9215  143.0087  160.8972 C.3     1  UNL1        0.0768
      6 C         138.7375  142.3120  162.2129 C.3     1  UNL1        0.0433
      7 C         139.6928  142.2232  163.3657 C.ar    1  UNL1       -0.0250
      8 C         139.1135  141.4271  164.4975 C.ar    1  UNL1       -0.0070
      9 C         139.9095  141.2170  165.7513 C.ar    1  UNL1        0.0017
     10 C         141.2850  141.8029  165.8735 C.ar    1  UNL1        0.0509
     11 C         141.8644  142.5989  164.7417 C.ar    1  UNL1       -0.0003
     12 C         141.0683  142.8090  163.4879 C.ar    1  UNL1       -0.0246
     13 C         141.8280  143.6285  162.4873 C.3     1  UNL1        0.0433
     14 C         141.3999  144.0644  161.1173 C.3     1  UNL1        0.0768
     15 C         141.8290  141.4314  167.2210 C.2     1  UNL1        0.2489
     16 O         143.1759  141.8092  167.7628 O.2     1  UNL1       -0.2699
     17 N         140.7899  140.6161  167.9318 N.am    1  UNL1       -0.2736
     18 C         139.6036  140.4835  167.0234 C.3     1  UNL1        0.1205
     19 C         140.9149  140.0351  169.3090 C.3     1  UNL1        0.0761
     20 C         142.1475  139.2706  169.6915 C.3     1  UNL1        0.0215
     21 C         139.8073  140.2188  170.3039 C.3     1  UNL1        0.0215
     22 C         140.3398  143.0183  156.8425 C.3     1  UNL1        0.0665
     23 S         140.9300  141.6442  156.9593 S.3     1  UNL1       -0.0756
     24 C         141.0514  139.9310  160.4400 C.ar    1  UNL1        0.1669
     25 N         142.4418  140.4852  160.3411 N.ar    1  UNL1       -0.1282
     26 N         142.5655  141.1945  159.0252 N.ar    1  UNL1       -0.1221
     27 C         141.2516  141.0786  158.3108 C.ar    1  UNL1        0.1932
     28 N         140.3159  140.2977  159.1853 N.ar    1  UNL1       -0.2884
     29 C         138.8942  139.9454  158.8616 C.3     1  UNL1        0.1340
     30 C         143.8175  138.2694  166.5095 C.3     1  UNL1        0.0521
     31 C         142.9868  138.4890  165.2800 C.ar    1  UNL1        0.0593
     32 C         143.5438  139.2724  164.1285 C.ar    1  UNL1        0.0147
     33 C         142.7130  139.4919  162.8989 C.ar    1  UNL1        0.0028
     34 C         141.3252  138.9280  162.8210 C.ar    1  UNL1        0.0206
     35 C         140.4944  139.1475  161.5915 C.ar    1  UNL1        0.0374
     36 C         139.1066  138.5837  161.5135 C.ar    1  UNL1        0.0031
     37 C         138.5496  137.8002  162.6651 C.ar    1  UNL1        0.0016
     38 C         139.3804  137.5807  163.8946 C.ar    1  UNL1        0.0191
     39 C         140.7682  138.1446  163.9725 C.ar    1  UNL1        0.0810
     40 N         141.5990  137.9251  165.2020 N.ar    1  UNL1       -0.2497
@<TRIPOS>BOND
     1    30    31    1
     2    31    32   ar
     3    32    33   ar
     4    33    34   ar
     5    34    35   ar
     6    35    24    1
     7    24    25   ar
     8    25    26   ar
     9    26    27   ar
    10    27    23    1
    11    23    22    1
    12    22     1    1
    13     1     2    1
    14     2     3    1
    15     2     4    1
    16     4     5    1
    17     5     6    1
    18     6     7    1
    19     7     8   ar
    20     8     9   ar
    21     9    10   ar
    22    10    11   ar
    23    11    12   ar
    24    12    13    1
    25    13    14    1
    26    10    15    1
    27    15    16    2
    28    15    17   am
    29    17    19    1
    30    19    20    1
    31    19    21    1
    32    17    18    1
    33    27    28   ar
    34    28    29    1
    35    35    36   ar
    36    36    37   ar
    37    37    38   ar
    38    38    39   ar
    39    39    40   ar
    40    40    31   ar
    41    39    34   ar
    42    28    24   ar
    43    14     4    1
    44    12     7   ar
    45    18     9    1
@<TRIPOS>MOLECULE
*****
 40 45 0 0 0
SMALL
GASTEIGER

@<TRIPOS>ATOM
      1 C         142.9178  143.1679  157.5782 C.3     1  UNL1        0.0280
      2 C         143.9026  142.5933  158.5528 C.3     1  UNL1        0.0584
      3 C         145.3233  142.3584  158.1330 C.3     1  UNL1        0.0174
      4 N         143.4667  142.2537  159.9474 N.3     1  UNL1       -0.2733
      5 C         143.7124  140.8384  160.3795 C.3     1  UNL1        0.0768
      6 C         143.3948  140.1941  161.6964 C.3     1  UNL1        0.0433
      7 C         142.7531  140.8060  162.9062 C.ar    1  UNL1       -0.0250
      8 C         142.6169  139.8082  164.0179 C.ar    1  UNL1       -0.0070
      9 C         141.9981  140.2177  165.3216 C.ar    1  UNL1        0.0017
     10 C         141.5155  141.6249  165.5135 C.ar    1  UNL1        0.0509
     11 C         141.6518  142.6227  164.4018 C.ar    1  UNL1       -0.0003
     12 C         142.2706  142.2132  163.0982 C.ar    1  UNL1       -0.0246
     13 C         142.3105  143.3562  162.1276 C.3     1  UNL1        0.0433
     14 C         142.8428  143.3741  160.7253 C.3     1  UNL1        0.0768
     15 C         140.9519  141.7367  166.8990 C.2     1  UNL1        0.2489
     16 O         140.3582  142.9702  167.5125 O.2     1  UNL1       -0.2699
     17 N         141.0861  140.3986  167.5634 N.am    1  UNL1       -0.2736
     18 C         141.7327  139.4598  166.5885 C.3     1  UNL1        0.1205
     19 C         140.6502  140.0589  168.9579 C.3     1  UNL1        0.0761
     20 C         139.2221  140.2641  169.3683 C.3     1  UNL1        0.0215
     21 C         141.6425  139.5140  169.9420 C.3     1  UNL1        0.0215
     22 C         142.2624  142.2797  156.5625 C.3     1  UNL1        0.0665
     23 S         140.8709  141.7712  156.7973 S.3     1  UNL1       -0.0756
     24 C         139.6045  141.2967  160.4355 C.ar    1  UNL1        0.1669
     25 N         140.0588  139.9063  160.1031 N.ar    1  UNL1       -0.1282
     26 N         140.5886  139.9149  158.6997 N.ar    1  UNL1       -0.1221
     27 C         140.4616  141.3105  158.1648 C.ar    1  UNL1        0.1932
     28 N         139.8534  142.1645  159.2377 N.ar    1  UNL1       -0.2884
     29 C         139.5478  143.6292  159.1312 C.3     1  UNL1        0.1340
     30 C         138.3086  137.8099  166.2159 C.3     1  UNL1        0.0521
     31 C         138.4830  138.7926  165.0962 C.ar    1  UNL1        0.0593
     32 C         139.0812  138.3481  163.7944 C.ar    1  UNL1        0.0147
     33 C         139.2557  139.3310  162.6748 C.ar    1  UNL1        0.0028
     34 C         138.8319  140.7583  162.8569 C.ar    1  UNL1        0.0206
     35 C         139.0063  141.7412  161.7373 C.ar    1  UNL1        0.0374
     36 C         138.5826  143.1685  161.9194 C.ar    1  UNL1        0.0031
     37 C         137.9844  143.6130  163.2211 C.ar    1  UNL1        0.0016
     38 C         137.8099  142.6302  164.3408 C.ar    1  UNL1        0.0191
     39 C         138.2337  141.2028  164.1586 C.ar    1  UNL1        0.0810
     40 N         138.0593  140.2200  165.2783 N.ar    1  UNL1       -0.2497
@<TRIPOS>BOND
     1    30    31    1
     2    31    32   ar
     3    32    33   ar
     4    33    34   ar
     5    34    35   ar
     6    35    24    1
     7    24    25   ar
     8    25    26   ar
     9    26    27   ar
    10    27    23    1
    11    23    22    1
    12    22     1    1
    13     1     2    1
    14     2     3    1
    15     2     4    1
    16     4     5    1
    17     5     6    1
    18     6     7    1
    19     7     8   ar
    20     8     9   ar
    21     9    10   ar
    22    10    11   ar
    23    11    12   ar
    24    12    13    1
    25    13    14    1
    26    10    15    1
    27    15    16    2
    28    15    17   am
    29    17    19    1
    30    19    20    1
    31    19    21    1
    32    17    18    1
    33    27    28   ar
    34    28    29    1
    35    35    36   ar
    36    36    37   ar
    37    37    38   ar
    38    38    39   ar
    39    39    40   ar
    40    40    31   ar
    41    39    34   ar
    42    28    24   ar
    43    14     4    1
    44    12     7   ar
    45    18     9    1
@<TRIPOS>MOLECULE
*****
 40 45 0 0 0
SMALL
GASTEIGER

@<TRIPOS>ATOM
      1 C         143.7782  140.0459  157.5565 C.3     1  UNL1        0.0280
      2 C         144.0611  141.2698  158.3763 C.3     1  UNL1        0.0584
      3 C         144.8597  142.3965  157.7910 C.3     1  UNL1        0.0174
      4 N         143.5454  141.3669  159.7816 N.3     1  UNL1       -0.2733
      5 C         142.8584  142.6526  160.1352 C.3     1  UNL1        0.0768
      6 C         142.2412  143.0544  161.4421 C.3     1  UNL1        0.0433
      7 C         142.1586  142.2699  162.7177 C.ar    1  UNL1       -0.0250
      8 C         141.4548  143.0441  163.7927 C.ar    1  UNL1       -0.0070
      9 C         141.2653  142.4382  165.1516 C.ar    1  UNL1        0.0017
     10 C         141.7794  141.0580  165.4358 C.ar    1  UNL1        0.0509
     11 C         142.4832  140.2837  164.3609 C.ar    1  UNL1       -0.0003
     12 C         142.6727  140.8897  163.0019 C.ar    1  UNL1       -0.0246
     13 C         143.3965  139.9532  162.0804 C.3     1  UNL1        0.0433
     14 C         143.7849  140.1657  160.6472 C.3     1  UNL1        0.0768
     15 C         141.4479  140.7239  166.8600 C.2     1  UNL1        0.2489
     16 O         141.7775  139.4412  167.5645 O.2     1  UNL1       -0.2699
     17 N         140.7288  141.8975  167.4561 N.am    1  UNL1       -0.2736
     18 C         140.6159  142.9570  166.4003 C.3     1  UNL1        0.1205
     19 C         140.2130  141.9947  168.8613 C.3     1  UNL1        0.0761
     20 C         140.4298  143.2491  169.6547 C.3     1  UNL1        0.0215
     21 C         139.4805  140.8374  169.4731 C.3     1  UNL1        0.0215
     22 C         142.7070  140.0773  156.5070 C.3     1  UNL1        0.0665
     23 S         141.3411  139.5381  156.8130 S.3     1  UNL1       -0.0756
     24 C         139.8235  140.1709  160.3289 C.ar    1  UNL1        0.1669
     25 N         140.3395  138.7709  160.4837 N.ar    1  UNL1       -0.1282
     26 N         140.9709  138.3635  159.1854 N.ar    1  UNL1       -0.1221
     27 C         140.8450  139.5116  158.2283 C.ar    1  UNL1        0.1932
     28 N         140.1359  140.6286  158.9351 N.ar    1  UNL1       -0.2884
     29 C         139.7985  141.9682  158.3505 C.3     1  UNL1        0.1340
     30 C         138.1669  138.6069  166.8143 C.3     1  UNL1        0.0521
     31 C         138.4049  139.1982  165.4565 C.ar    1  UNL1        0.0593
     32 C         139.1096  138.3967  164.4024 C.ar    1  UNL1        0.0147
     33 C         139.3476  138.9881  163.0445 C.ar    1  UNL1        0.0028
     34 C         138.8808  140.3810  162.7408 C.ar    1  UNL1        0.0206
     35 C         139.1188  140.9723  161.3830 C.ar    1  UNL1        0.0374
     36 C         138.6521  142.3651  161.0792 C.ar    1  UNL1        0.0031
     37 C         137.9474  143.1666  162.1333 C.ar    1  UNL1        0.0016
     38 C         137.7095  142.5752  163.4912 C.ar    1  UNL1        0.0191
     39 C         138.1762  141.1824  163.7949 C.ar    1  UNL1        0.0810
     40 N         137.9382  140.5910  165.1527 N.ar    1  UNL1       -0.2497
@<TRIPOS>BOND
     1    30    31    1
     2    31    32   ar
     3    32    33   ar
     4    33    34   ar
     5    34    35   ar
     6    35    24    1
     7    24    25   ar
     8    25    26   ar
     9    26    27   ar
    10    27    23    1
    11    23    22    1
    12    22     1    1
    13     1     2    1
    14     2     3    1
    15     2     4    1
    16     4     5    1
    17     5     6    1
    18     6     7    1
    19     7     8   ar
    20     8     9   ar
    21     9    10   ar
    22    10    11   ar
    23    11    12   ar
    24    12    13    1
    25    13    14    1
    26    10    15    1
    27    15    16    2
    28    15    17   am
    29    17    19    1
    30    19    20    1
    31    19    21    1
    32    17    18    1
    33    27    28   ar
    34    28    29    1
    35    35    36   ar
    36    36    37   ar
    37    37    38   ar
    38    38    39   ar
    39    39    40   ar
    40    40    31   ar
    41    39    34   ar
    42    28    24   ar
    43    14     4    1
    44    12     7   ar
    45    18     9    1
@<TRIPOS>MOLECULE
*****
 40 45 0 0 0
SMALL
GASTEIGER

@<TRIPOS>ATOM
      1 C         141.5448  142.2614  170.3334 C.3     1  UNL1        0.0280
      2 C         142.5979  142.5220  169.2975 C.3     1  UNL1        0.0584
      3 C         144.0270  142.7113  169.7120 C.3     1  UNL1        0.0174
      4 N         142.2219  142.5932  167.8472 N.3     1  UNL1       -0.2733
      5 C         143.3579  142.4801  166.8740 C.3     1  UNL1        0.0768
      6 C         143.3121  142.5140  165.3751 C.3     1  UNL1        0.0433
      7 C         142.1193  142.6693  164.4792 C.ar    1  UNL1       -0.0250
      8 C         142.5145  142.6511  163.0322 C.ar    1  UNL1       -0.0070
      9 C         141.4680  142.7927  161.9670 C.ar    1  UNL1        0.0017
     10 C         140.0262  142.9526  162.3485 C.ar    1  UNL1        0.0509
     11 C         139.6309  142.9708  163.7955 C.ar    1  UNL1       -0.0003
     12 C         140.6774  142.8292  164.8607 C.ar    1  UNL1       -0.0246
     13 C         140.0724  142.8732  166.2326 C.3     1  UNL1        0.0433
     14 C         140.7599  142.7682  167.5617 C.3     1  UNL1        0.0768
     15 C         139.2231  143.0698  161.0872 C.2     1  UNL1        0.2489
     16 O         137.7356  143.2438  161.0019 O.2     1  UNL1       -0.2699
     17 N         140.1685  142.9823  159.9259 N.am    1  UNL1       -0.2736
     18 C         141.5559  142.8111  160.4697 C.3     1  UNL1        0.1205
     19 C         139.7926  143.0535  158.4755 C.3     1  UNL1        0.0761
     20 C         139.0770  141.9047  157.8289 C.3     1  UNL1        0.0215
     21 C         140.1323  144.2737  157.6718 C.3     1  UNL1        0.0215
     22 C         141.6352  141.0441  171.2051 C.3     1  UNL1        0.0665
     23 S         141.4432  139.6802  170.6111 S.3     1  UNL1       -0.0756
     24 C         141.3164  139.2732  166.7532 C.ar    1  UNL1        0.1669
     25 N         142.7597  138.9718  167.0291 N.ar    1  UNL1       -0.1282
     26 N         142.9828  139.0876  168.5080 N.ar    1  UNL1       -0.1221
     27 C         141.6775  139.4605  169.1459 C.ar    1  UNL1        0.1932
     28 N         140.6476  139.5752  168.0614 N.ar    1  UNL1       -0.2884
     29 C         139.2025  139.9296  168.2518 C.3     1  UNL1        0.1340
     30 C         143.9989  138.9413  160.4330 C.3     1  UNL1        0.0521
     31 C         143.1636  139.0241  161.6762 C.ar    1  UNL1        0.0593
     32 C         143.8224  139.0247  163.0238 C.ar    1  UNL1        0.0147
     33 C         142.9871  139.1075  164.2670 C.ar    1  UNL1        0.0028
     34 C         141.4929  139.1898  164.1624 C.ar    1  UNL1        0.0206
     35 C         140.6576  139.2726  165.4056 C.ar    1  UNL1        0.0374
     36 C         139.1635  139.3548  165.3012 C.ar    1  UNL1        0.0031
     37 C         138.5047  139.3542  163.9536 C.ar    1  UNL1        0.0016
     38 C         139.3401  139.2714  162.7104 C.ar    1  UNL1        0.0191
     39 C         140.8342  139.1892  162.8149 C.ar    1  UNL1        0.0810
     40 N         141.6695  139.1063  161.5717 N.ar    1  UNL1       -0.2497
@<TRIPOS>BOND
     1    30    31    1
     2    31    32   ar
     3    32    33   ar
     4    33    34   ar
     5    34    35   ar
     6    35    24    1
     7    24    25   ar
     8    25    26   ar
     9    26    27   ar
    10    27    23    1
    11    23    22    1
    12    22     1    1
    13     1     2    1
    14     2     3    1
    15     2     4    1
    16     4     5    1
    17     5     6    1
    18     6     7    1
    19     7     8   ar
    20     8     9   ar
    21     9    10   ar
    22    10    11   ar
    23    11    12   ar
    24    12    13    1
    25    13    14    1
    26    10    15    1
    27    15    16    2
    28    15    17   am
    29    17    19    1
    30    19    20    1
    31    19    21    1
    32    17    18    1
    33    27    28   ar
    34    28    29    1
    35    35    36   ar
    36    36    37   ar
    37    37    38   ar
    38    38    39   ar
    39    39    40   ar
    40    40    31   ar
    41    39    34   ar
    42    28    24   ar
    43    14     4    1
    44    12     7   ar
    45    18     9    1
