@<TRIPOS>MOLECULE
*****
 33 35 0 0 0
SMALL
GASTEIGER

@<TRIPOS>ATOM
      1 C         141.8836  140.8923  167.2366 C.ar    1  UNL1        0.1409
      2 N         140.6976  140.3762  166.4769 N.ar    1  UNL1       -0.1986
      3 C         139.5149  139.8250  167.2169 C.ar    1  UNL1        0.2181
      4 N         139.5183  139.7897  168.7165 N.ar    1  UNL1       -0.2120
      5 C         140.7043  140.3058  169.4761 C.ar    1  UNL1        0.1091
      6 C         141.8869  140.8570  168.7362 C.ar    1  UNL1        0.1040
      7 C         143.0730  141.3731  169.4958 C.2     1  UNL1        0.2470
      8 N         143.6202  140.5916  170.6533 N.am    1  UNL1       -0.3252
      9 O         143.7118  142.6707  169.0979 O.2     1  UNL1       -0.2702
     10 H         143.2009  139.7400  170.9145 H       1  UNL1        0.1453
     11 H         144.3986  140.9303  171.1519 H       1  UNL1        0.1453
     12 N         143.0662  141.4436  166.4967 N.pl3   1  UNL1       -0.2977
     13 H         143.9485  141.0171  166.5912 H       1  UNL1        0.1536
     14 C         140.0017  144.7427  163.9035 C.3     1  UNL1        0.0311
     15 C         141.3723  144.2942  164.3162 C.ar    1  UNL1       -0.0206
     16 C         142.5812  145.0468  163.8450 C.ar    1  UNL1       -0.0042
     17 C         143.9518  144.5983  164.2576 C.ar    1  UNL1        0.0009
     18 C         144.1135  143.3972  165.1415 C.ar    1  UNL1        0.0146
     19 C         142.9045  142.6447  165.6127 C.ar    1  UNL1        0.0491
     20 C         141.5339  143.0932  165.2000 C.ar    1  UNL1        0.0104
     21 N         138.3289  139.3089  166.4573 N.pl3   1  UNL1       -0.3033
     22 H         137.4935  139.0974  166.9333 H       1  UNL1        0.1496
     23 C         138.4157  139.1152  164.9723 C.3     1  UNL1        0.0862
     24 C         138.8966  137.8090  164.4132 C.3     1  UNL1        0.0265
     25 C         138.9834  137.6152  162.9283 C.3     1  UNL1        0.0683
     26 C         138.5894  138.7278  162.0025 C.3     1  UNL1        0.2653
     27 F         138.3313  139.4770  160.7289 F       1  UNL1       -0.2043
     28 F         138.9806  137.6817  161.0011 F       1  UNL1       -0.2043
     29 C         138.1086  140.0340  162.5616 C.3     1  UNL1        0.0837
     30 C         138.0218  140.2277  164.0465 C.3     1  UNL1        0.0744
     31 N         137.5409  141.5339  164.6057 N.3     1  UNL1       -0.3207
     32 H         137.5456  141.4899  165.6247 H       1  UNL1        0.1189
     33 H         136.5924  141.7157  164.2776 H       1  UNL1        0.1189
@<TRIPOS>BOND
     1    14    15    1
     2    15    16   ar
     3    16    17   ar
     4    17    18   ar
     5    18    19   ar
     6    19    12    1
     7    12     1    1
     8     1     2   ar
     9     2     3   ar
    10     3    21    1
    11    23    21    1
    12    23    24    1
    13    24    25    1
    14    25    26    1
    15    26    27    1
    16    26    28    1
    17    26    29    1
    18    29    30    1
    19    30    31    1
    20     3     4   ar
    21     4     5   ar
    22     5     6   ar
    23     6     7    1
    24     7     8   am
    25     7     9    2
    26    19    20   ar
    27    20    15   ar
    28     6     1   ar
    29    30    23    1
    30    12    13    1
    31    21    22    1
    32    31    32    1
    33    31    33    1
    34     8    10    1
    35     8    11    1
@<TRIPOS>MOLECULE
*****
 33 35 0 0 0
SMALL
GASTEIGER

@<TRIPOS>ATOM
      1 C         137.8566  140.0855  163.7057 C.ar    1  UNL1        0.1409
      2 N         137.9231  140.1370  165.2034 N.ar    1  UNL1       -0.1986
      3 C         138.4985  138.9823  165.9687 C.ar    1  UNL1        0.2181
      4 N         139.0075  137.7763  165.2364 N.ar    1  UNL1       -0.2120
      5 C         138.9411  137.7248  163.7387 C.ar    1  UNL1        0.1091
      6 C         138.3657  138.8794  162.9734 C.ar    1  UNL1        0.1040
      7 C         138.2992  138.8279  161.4758 C.2     1  UNL1        0.2470
      8 N         139.3777  138.1309  160.7007 N.am    1  UNL1       -0.3252
      9 O         137.1541  139.4736  160.7532 O.2     1  UNL1       -0.2702
     10 H         140.1293  137.7071  161.1749 H       1  UNL1        0.1453
     11 H         139.3341  138.0971  159.7177 H       1  UNL1        0.1453
     12 N         137.2812  141.2401  162.9404 N.pl3   1  UNL1       -0.2977
     13 H         136.4303  141.1349  162.4566 H       1  UNL1        0.1536
     14 C         140.2079  144.7141  160.4173 C.3     1  UNL1        0.0311
     15 C         139.4657  144.2921  161.6506 C.ar    1  UNL1       -0.0206
     16 C         139.4445  145.1851  162.8556 C.ar    1  UNL1       -0.0042
     17 C         138.7023  144.7631  164.0889 C.ar    1  UNL1        0.0009
     18 C         137.9812  143.4482  164.1172 C.ar    1  UNL1        0.0146
     19 C         138.0023  142.5552  162.9122 C.ar    1  UNL1        0.0491
     20 C         138.7446  142.9772  161.6789 C.ar    1  UNL1        0.0104
     21 N         138.5650  139.0338  167.4663 N.pl3   1  UNL1       -0.3033
     22 H         138.0270  138.4093  168.0047 H       1  UNL1        0.1496
     23 C         139.4511  140.0368  168.1437 C.3     1  UNL1        0.0862
     24 C         140.5957  140.6528  167.3951 C.3     1  UNL1        0.0265
     25 C         141.4818  141.6558  168.0725 C.3     1  UNL1        0.0683
     26 C         141.2233  142.0428  169.4986 C.3     1  UNL1        0.2653
     27 F         141.3814  142.7260  170.8245 F       1  UNL1       -0.2043
     28 F         142.4228  142.8961  169.2104 F       1  UNL1       -0.2043
     29 C         140.0787  141.4266  170.2472 C.3     1  UNL1        0.0837
     30 C         139.1926  140.4237  169.5697 C.3     1  UNL1        0.0744
     31 N         138.0480  139.8076  170.3183 N.3     1  UNL1       -0.3207
     32 H         137.5563  139.1535  169.7094 H       1  UNL1        0.1189
     33 H         137.4054  140.5400  170.6200 H       1  UNL1        0.1189
@<TRIPOS>BOND
     1    14    15    1
     2    15    16   ar
     3    16    17   ar
     4    17    18   ar
     5    18    19   ar
     6    19    12    1
     7    12     1    1
     8     1     2   ar
     9     2     3   ar
    10     3    21    1
    11    23    21    1
    12    23    24    1
    13    24    25    1
    14    25    26    1
    15    26    27    1
    16    26    28    1
    17    26    29    1
    18    29    30    1
    19    30    31    1
    20     3     4   ar
    21     4     5   ar
    22     5     6   ar
    23     6     7    1
    24     7     8   am
    25     7     9    2
    26    19    20   ar
    27    20    15   ar
    28     6     1   ar
    29    30    23    1
    30    12    13    1
    31    21    22    1
    32    31    32    1
    33    31    33    1
    34     8    10    1
    35     8    11    1
@<TRIPOS>MOLECULE
*****
 33 35 0 0 0
SMALL
GASTEIGER

@<TRIPOS>ATOM
      1 C         139.0877  141.4799  165.2094 C.ar    1  UNL1        0.1409
      2 N         139.6247  141.3406  166.6031 N.ar    1  UNL1       -0.1986
      3 C         139.4248  140.0607  167.3594 C.ar    1  UNL1        0.2181
      4 N         138.6880  138.9201  166.7221 N.ar    1  UNL1       -0.2120
      5 C         138.1511  139.0594  165.3284 C.ar    1  UNL1        0.1091
      6 C         138.3509  140.3392  164.5721 C.ar    1  UNL1        0.1040
      7 C         137.8140  140.4785  163.1784 C.2     1  UNL1        0.2470
      8 N         138.0734  139.4045  162.1640 N.am    1  UNL1       -0.3252
      9 O         137.0176  141.6918  162.7993 O.2     1  UNL1       -0.2702
     10 H         138.5960  138.6082  162.4128 H       1  UNL1        0.1453
     11 H         137.7210  139.4959  161.2492 H       1  UNL1        0.1453
     12 N         139.2876  142.7597  164.4531 N.pl3   1  UNL1       -0.2977
     13 H         138.5161  143.2173  164.0474 H       1  UNL1        0.1536
     14 C         144.4506  142.1926  164.6012 C.3     1  UNL1        0.0311
     15 C         143.2444  143.0587  164.3889 C.ar    1  UNL1       -0.0206
     16 C         143.4135  144.5073  164.0383 C.ar    1  UNL1       -0.0042
     17 C         142.2074  145.3734  163.8261 C.ar    1  UNL1        0.0009
     18 C         140.8321  144.7908  163.9643 C.ar    1  UNL1        0.0146
     19 C         140.6629  143.3423  164.3148 C.ar    1  UNL1        0.0491
     20 C         141.8691  142.4762  164.5271 C.ar    1  UNL1        0.0104
     21 N         139.9617  139.9214  168.7531 N.pl3   1  UNL1       -0.3033
     22 H         139.6218  139.2101  169.3428 H       1  UNL1        0.1496
     23 C         141.0166  140.8659  169.2483 C.3     1  UNL1        0.0862
     24 C         140.6210  142.1657  169.8840 C.3     1  UNL1        0.0265
     25 C         141.6759  143.1102  170.3792 C.3     1  UNL1        0.0683
     26 C         143.1264  142.7549  170.2386 C.3     1  UNL1        0.2653
     27 F         144.6196  142.8642  170.3298 F       1  UNL1       -0.2043
     28 F         143.2493  144.0926  170.9060 F       1  UNL1       -0.2043
     29 C         143.5220  141.4551  169.6028 C.3     1  UNL1        0.0837
     30 C         142.4671  140.5107  169.1077 C.3     1  UNL1        0.0744
     31 N         142.8628  139.2109  168.4720 N.3     1  UNL1       -0.3207
     32 H         142.0250  138.6982  168.1966 H       1  UNL1        0.1189
     33 H         143.3977  138.6549  169.1392 H       1  UNL1        0.1189
@<TRIPOS>BOND
     1    14    15    1
     2    15    16   ar
     3    16    17   ar
     4    17    18   ar
     5    18    19   ar
     6    19    12    1
     7    12     1    1
     8     1     2   ar
     9     2     3   ar
    10     3    21    1
    11    23    21    1
    12    23    24    1
    13    24    25    1
    14    25    26    1
    15    26    27    1
    16    26    28    1
    17    26    29    1
    18    29    30    1
    19    30    31    1
    20     3     4   ar
    21     4     5   ar
    22     5     6   ar
    23     6     7    1
    24     7     8   am
    25     7     9    2
    26    19    20   ar
    27    20    15   ar
    28     6     1   ar
    29    30    23    1
    30    12    13    1
    31    21    22    1
    32    31    32    1
    33    31    33    1
    34     8    10    1
    35     8    11    1
@<TRIPOS>MOLECULE
*****
 33 35 0 0 0
SMALL
GASTEIGER

@<TRIPOS>ATOM
      1 C         139.0315  141.4746  165.3195 C.ar    1  UNL1        0.1409
      2 N         139.5917  141.3304  166.7035 N.ar    1  UNL1       -0.1986
      3 C         139.4470  140.0315  167.4397 C.ar    1  UNL1        0.2181
      4 N         138.7421  138.8768  166.7919 N.ar    1  UNL1       -0.2120
      5 C         138.1819  139.0209  165.4079 C.ar    1  UNL1        0.1091
      6 C         138.3266  140.3197  164.6717 C.ar    1  UNL1        0.1040
      7 C         137.7664  140.4638  163.2877 C.2     1  UNL1        0.2470
      8 N         137.9723  139.3739  162.2780 N.am    1  UNL1       -0.3252
      9 O         137.0003  141.6980  162.9135 O.2     1  UNL1       -0.2702
     10 H         138.4751  138.5639  162.5237 H       1  UNL1        0.1453
     11 H         137.6046  139.4685  161.3697 H       1  UNL1        0.1453
     12 N         139.1761  142.7734  164.5834 N.pl3   1  UNL1       -0.2977
     13 H         138.3804  143.2232  164.2176 H       1  UNL1        0.1536
     14 C         144.3492  142.4371  164.9389 C.3     1  UNL1        0.0311
     15 C         143.1197  143.2189  164.5822 C.ar    1  UNL1       -0.0206
     16 C         143.2472  144.6142  164.0467 C.ar    1  UNL1       -0.0042
     17 C         142.0177  145.3959  163.6900 C.ar    1  UNL1        0.0009
     18 C         140.6607  144.7823  163.8689 C.ar    1  UNL1        0.0146
     19 C         140.5332  143.3870  164.4044 C.ar    1  UNL1        0.0491
     20 C         141.7627  142.6053  164.7611 C.ar    1  UNL1        0.0104
     21 N         140.0072  139.8874  168.8237 N.pl3   1  UNL1       -0.3033
     22 H         139.6639  139.1859  169.4231 H       1  UNL1        0.1496
     23 C         141.0905  140.8121  169.2944 C.3     1  UNL1        0.0862
     24 C         142.5074  140.5931  168.8538 C.3     1  UNL1        0.0265
     25 C         143.5907  141.5179  169.3244 C.3     1  UNL1        0.0683
     26 C         143.2569  142.6616  170.2357 C.3     1  UNL1        0.2653
     27 F         143.4369  143.8757  171.0980 F       1  UNL1       -0.2043
     28 F         144.7364  142.8642  170.0946 F       1  UNL1       -0.2043
     29 C         141.8398  142.8806  170.6763 C.3     1  UNL1        0.0837
     30 C         140.7567  141.9559  170.2056 C.3     1  UNL1        0.0744
     31 N         139.3396  142.1749  170.6462 N.3     1  UNL1       -0.3207
     32 H         138.7410  141.4589  170.2346 H       1  UNL1        0.1189
     33 H         139.0270  143.0964  170.3404 H       1  UNL1        0.1189
@<TRIPOS>BOND
     1    14    15    1
     2    15    16   ar
     3    16    17   ar
     4    17    18   ar
     5    18    19   ar
     6    19    12    1
     7    12     1    1
     8     1     2   ar
     9     2     3   ar
    10     3    21    1
    11    23    21    1
    12    23    24    1
    13    24    25    1
    14    25    26    1
    15    26    27    1
    16    26    28    1
    17    26    29    1
    18    29    30    1
    19    30    31    1
    20     3     4   ar
    21     4     5   ar
    22     5     6   ar
    23     6     7    1
    24     7     8   am
    25     7     9    2
    26    19    20   ar
    27    20    15   ar
    28     6     1   ar
    29    30    23    1
    30    12    13    1
    31    21    22    1
    32    31    32    1
    33    31    33    1
    34     8    10    1
    35     8    11    1
@<TRIPOS>MOLECULE
*****
 33 35 0 0 0
SMALL
GASTEIGER

@<TRIPOS>ATOM
      1 C         141.8004  141.1765  167.3496 C.ar    1  UNL1        0.1409
      2 N         140.6054  140.7385  166.5558 N.ar    1  UNL1       -0.1986
      3 C         139.4861  140.0019  167.2301 C.ar    1  UNL1        0.2181
      4 N         139.5618  139.7033  168.6981 N.ar    1  UNL1       -0.2120
      5 C         140.7569  140.1413  169.4919 C.ar    1  UNL1        0.1091
      6 C         141.8761  140.8779  168.8176 C.ar    1  UNL1        0.1040
      7 C         143.0712  141.3159  169.6114 C.2     1  UNL1        0.2470
      8 N         143.6107  140.4375  170.7011 N.am    1  UNL1       -0.3252
      9 O         143.7267  142.6322  169.3155 O.2     1  UNL1       -0.2702
     10 H         143.1805  139.5736  170.8953 H       1  UNL1        0.1453
     11 H         144.3950  140.7250  171.2220 H       1  UNL1        0.1453
     12 N         142.9197  141.9131  166.6753 N.pl3   1  UNL1       -0.2977
     13 H         143.2677  142.7461  167.0680 H       1  UNL1        0.1536
     14 C         144.6787  142.7105  161.8514 C.3     1  UNL1        0.0311
     15 C         144.3883  141.7792  162.9909 C.ar    1  UNL1       -0.0206
     16 C         144.6870  140.3153  162.8578 C.ar    1  UNL1       -0.0042
     17 C         144.3966  139.3839  163.9972 C.ar    1  UNL1        0.0009
     18 C         143.8075  139.9165  165.2697 C.ar    1  UNL1        0.0146
     19 C         143.5088  141.3804  165.4028 C.ar    1  UNL1        0.0491
     20 C         143.7992  142.3117  164.2634 C.ar    1  UNL1        0.0104
     21 N         138.2910  139.5639  166.4363 N.pl3   1  UNL1       -0.3033
     22 H         137.4160  139.4669  166.8770 H       1  UNL1        0.1496
     23 C         138.4293  139.2736  164.9711 C.3     1  UNL1        0.0862
     24 C         139.0060  137.9656  164.5168 C.3     1  UNL1        0.0265
     25 C         139.1442  137.6754  163.0516 C.3     1  UNL1        0.0683
     26 C         138.7056  138.6932  162.0408 C.3     1  UNL1        0.2653
     27 F         138.4347  139.3340  160.7120 F       1  UNL1       -0.2043
     28 F         139.1883  137.6077  161.1250 F       1  UNL1       -0.2043
     29 C         138.1288  140.0012  162.4952 C.3     1  UNL1        0.0837
     30 C         137.9906  140.2914  163.9603 C.3     1  UNL1        0.0744
     31 N         137.4138  141.5995  164.4147 N.3     1  UNL1       -0.3207
     32 H         137.3943  141.6266  165.4342 H       1  UNL1        0.1189
     33 H         136.4648  141.6962  164.0538 H       1  UNL1        0.1189
@<TRIPOS>BOND
     1    14    15    1
     2    15    16   ar
     3    16    17   ar
     4    17    18   ar
     5    18    19   ar
     6    19    12    1
     7    12     1    1
     8     1     2   ar
     9     2     3   ar
    10     3    21    1
    11    23    21    1
    12    23    24    1
    13    24    25    1
    14    25    26    1
    15    26    27    1
    16    26    28    1
    17    26    29    1
    18    29    30    1
    19    30    31    1
    20     3     4   ar
    21     4     5   ar
    22     5     6   ar
    23     6     7    1
    24     7     8   am
    25     7     9    2
    26    19    20   ar
    27    20    15   ar
    28     6     1   ar
    29    30    23    1
    30    12    13    1
    31    21    22    1
    32    31    32    1
    33    31    33    1
    34     8    10    1
    35     8    11    1
@<TRIPOS>MOLECULE
*****
 33 35 0 0 0
SMALL
GASTEIGER

@<TRIPOS>ATOM
      1 C         140.9944  140.4962  168.5818 C.ar    1  UNL1        0.1409
      2 N         140.1969  139.9576  167.4312 N.ar    1  UNL1       -0.1986
      3 C         138.7967  139.4672  167.6534 C.ar    1  UNL1        0.2181
      4 N         138.1942  139.5156  169.0262 N.ar    1  UNL1       -0.2120
      5 C         138.9917  140.0542  170.1768 C.ar    1  UNL1        0.1091
      6 C         140.3918  140.5445  169.9546 C.ar    1  UNL1        0.1040
      7 C         141.1893  141.0831  171.1052 C.2     1  UNL1        0.2470
      8 N         142.4760  140.4214  171.5008 N.am    1  UNL1       -0.3252
      9 O         140.7000  142.2833  171.8602 O.2     1  UNL1       -0.2702
     10 H         142.7971  139.6337  171.0052 H       1  UNL1        0.1453
     11 H         142.9995  140.7749  172.2560 H       1  UNL1        0.1453
     12 N         142.3944  140.9865  168.3596 N.pl3   1  UNL1       -0.2977
     13 H         142.9577  141.2325  169.1286 H       1  UNL1        0.1536
     14 C         144.0419  143.9214  164.4007 C.3     1  UNL1        0.0311
     15 C         143.7601  142.5694  164.9862 C.ar    1  UNL1       -0.0206
     16 C         144.0201  141.3330  164.1778 C.ar    1  UNL1       -0.0042
     17 C         143.7383  139.9810  164.7633 C.ar    1  UNL1        0.0009
     18 C         143.1964  139.8655  166.1572 C.ar    1  UNL1        0.0146
     19 C         142.9364  141.1019  166.9656 C.ar    1  UNL1        0.0491
     20 C         143.2182  142.4539  166.3801 C.ar    1  UNL1        0.0104
     21 N         137.9992  138.9286  166.5028 N.pl3   1  UNL1       -0.3033
     22 H         137.0631  138.6555  166.6378 H       1  UNL1        0.1496
     23 C         138.6281  138.8063  165.1464 C.3     1  UNL1        0.0862
     24 C         139.4808  137.6163  164.8197 C.3     1  UNL1        0.0265
     25 C         140.1097  137.4939  163.4634 C.3     1  UNL1        0.0683
     26 C         139.8858  138.5615  162.4338 C.3     1  UNL1        0.2653
     27 F         139.9679  139.3056  161.1340 F       1  UNL1       -0.2043
     28 F         140.7671  137.6300  161.6557 F       1  UNL1       -0.2043
     29 C         139.0330  139.7516  162.7606 C.3     1  UNL1        0.0837
     30 C         138.4042  139.8739  164.1169 C.3     1  UNL1        0.0744
     31 N         137.5514  141.0639  164.4436 N.3     1  UNL1       -0.3207
     32 H         137.2083  140.9837  165.4008 H       1  UNL1        0.1189
     33 H         136.7603  141.1021  163.8009 H       1  UNL1        0.1189
@<TRIPOS>BOND
     1    14    15    1
     2    15    16   ar
     3    16    17   ar
     4    17    18   ar
     5    18    19   ar
     6    19    12    1
     7    12     1    1
     8     1     2   ar
     9     2     3   ar
    10     3    21    1
    11    23    21    1
    12    23    24    1
    13    24    25    1
    14    25    26    1
    15    26    27    1
    16    26    28    1
    17    26    29    1
    18    29    30    1
    19    30    31    1
    20     3     4   ar
    21     4     5   ar
    22     5     6   ar
    23     6     7    1
    24     7     8   am
    25     7     9    2
    26    19    20   ar
    27    20    15   ar
    28     6     1   ar
    29    30    23    1
    30    12    13    1
    31    21    22    1
    32    31    32    1
    33    31    33    1
    34     8    10    1
    35     8    11    1
@<TRIPOS>MOLECULE
*****
 33 35 0 0 0
SMALL
GASTEIGER

@<TRIPOS>ATOM
      1 C         140.2613  139.7030  166.8842 C.ar    1  UNL1        0.1409
      2 N         141.3903  139.3250  165.9718 N.ar    1  UNL1       -0.1986
      3 C         142.7764  139.1618  166.5215 C.ar    1  UNL1        0.2181
      4 N         143.0334  139.3764  167.9836 N.ar    1  UNL1       -0.2120
      5 C         141.9044  139.7544  168.8960 C.ar    1  UNL1        0.1091
      6 C         140.5184  139.9176  168.3463 C.ar    1  UNL1        0.1040
      7 C         139.3894  140.2956  169.2587 C.2     1  UNL1        0.2470
      8 N         139.5221  141.4846  170.1635 N.am    1  UNL1       -0.3252
      9 O         138.1275  139.4845  169.2664 O.2     1  UNL1       -0.2702
     10 H         140.3502  142.0169  170.1585 H       1  UNL1        0.1453
     11 H         138.7811  141.7326  170.7623 H       1  UNL1        0.1453
     12 N         138.8753  139.8662  166.3344 N.pl3   1  UNL1       -0.2977
     13 H         138.1454  139.2919  166.6610 H       1  UNL1        0.1536
     14 C         139.2592  144.7655  164.6462 C.3     1  UNL1        0.0311
     15 C         138.7932  143.3542  164.4431 C.ar    1  UNL1       -0.0206
     16 C         138.0533  142.9813  163.1927 C.ar    1  UNL1       -0.0042
     17 C         137.5874  141.5701  162.9896 C.ar    1  UNL1        0.0009
     18 C         137.8613  140.5317  164.0368 C.ar    1  UNL1        0.0146
     19 C         138.6013  140.9046  165.2871 C.ar    1  UNL1        0.0491
     20 C         139.0672  142.3159  165.4903 C.ar    1  UNL1        0.0104
     21 N         143.9054  138.7838  165.6091 N.pl3   1  UNL1       -0.3033
     22 H         144.4970  138.0325  165.8431 H       1  UNL1        0.1496
     23 C         144.1331  139.5507  164.3402 C.3     1  UNL1        0.0862
     24 C         145.0894  140.7062  164.3235 C.3     1  UNL1        0.0265
     25 C         145.3171  141.4730  163.0545 C.3     1  UNL1        0.0683
     26 C         144.5884  141.0844  161.8023 C.3     1  UNL1        0.2653
     27 F         144.1375  141.0987  160.3719 F       1  UNL1       -0.2043
     28 F         145.3881  142.2448  161.2888 F       1  UNL1       -0.2043
     29 C         143.6321  139.9288  161.8191 C.3     1  UNL1        0.0837
     30 C         143.4044  139.1620  163.0880 C.3     1  UNL1        0.0744
     31 N         142.4481  138.0065  163.1048 N.3     1  UNL1       -0.3207
     32 H         142.4168  137.6046  164.0417 H       1  UNL1        0.1189
     33 H         142.7598  137.2975  162.4410 H       1  UNL1        0.1189
@<TRIPOS>BOND
     1    14    15    1
     2    15    16   ar
     3    16    17   ar
     4    17    18   ar
     5    18    19   ar
     6    19    12    1
     7    12     1    1
     8     1     2   ar
     9     2     3   ar
    10     3    21    1
    11    23    21    1
    12    23    24    1
    13    24    25    1
    14    25    26    1
    15    26    27    1
    16    26    28    1
    17    26    29    1
    18    29    30    1
    19    30    31    1
    20     3     4   ar
    21     4     5   ar
    22     5     6   ar
    23     6     7    1
    24     7     8   am
    25     7     9    2
    26    19    20   ar
    27    20    15   ar
    28     6     1   ar
    29    30    23    1
    30    12    13    1
    31    21    22    1
    32    31    32    1
    33    31    33    1
    34     8    10    1
    35     8    11    1
@<TRIPOS>MOLECULE
*****
 33 35 0 0 0
SMALL
GASTEIGER

@<TRIPOS>ATOM
      1 C         139.8976  139.2880  164.6713 C.ar    1  UNL1        0.1409
      2 N         140.3553  139.6573  166.0512 N.ar    1  UNL1       -0.1986
      3 C         141.6943  139.1961  166.5458 C.ar    1  UNL1        0.2181
      4 N         142.5755  138.3656  165.6604 N.ar    1  UNL1       -0.2120
      5 C         142.1177  137.9963  164.2805 C.ar    1  UNL1        0.1091
      6 C         140.7788  138.4575  163.7860 C.ar    1  UNL1        0.1040
      7 C         140.3211  138.0883  162.4061 C.2     1  UNL1        0.2470
      8 N         141.2956  138.0949  161.2658 N.am    1  UNL1       -0.3252
      9 O         138.8888  137.7124  162.1665 O.2     1  UNL1       -0.2702
     10 H         142.2356  138.3416  161.4230 H       1  UNL1        0.1453
     11 H         140.9952  137.8525  160.3601 H       1  UNL1        0.1453
     12 N         138.5587  139.7492  164.1767 N.pl3   1  UNL1       -0.2977
     13 H         137.8076  139.1148  164.1255 H       1  UNL1        0.1536
     14 C         138.4147  144.8048  165.3685 C.3     1  UNL1        0.0311
     15 C         138.2922  143.7048  164.3561 C.ar    1  UNL1       -0.0206
     16 C         137.9751  144.0327  162.9271 C.ar    1  UNL1       -0.0042
     17 C         137.8525  142.9327  161.9147 C.ar    1  UNL1        0.0009
     18 C         138.0471  141.5049  162.3312 C.ar    1  UNL1        0.0146
     19 C         138.3642  141.1771  163.7602 C.ar    1  UNL1        0.0491
     20 C         138.4867  142.2771  164.7726 C.ar    1  UNL1        0.0104
     21 N         142.1520  139.5653  167.9257 N.pl3   1  UNL1       -0.3033
     22 H         142.8827  139.0626  168.3530 H       1  UNL1        0.1496
     23 C         141.4964  140.7007  168.6546 C.3     1  UNL1        0.0862
     24 C         140.3036  140.4429  169.5267 C.3     1  UNL1        0.0265
     25 C         139.6480  141.5783  170.2556 C.3     1  UNL1        0.0683
     26 C         140.1853  142.9714  170.1123 C.3     1  UNL1        0.2653
     27 F         140.3253  144.4538  170.2938 F       1  UNL1       -0.2043
     28 F         139.0411  143.2285  171.0475 F       1  UNL1       -0.2043
     29 C         141.3782  143.2292  169.2401 C.3     1  UNL1        0.0837
     30 C         142.0337  142.0938  168.5113 C.3     1  UNL1        0.0744
     31 N         143.2266  142.3516  167.6391 N.3     1  UNL1       -0.3207
     32 H         143.5408  141.4741  167.2247 H       1  UNL1        0.1189
     33 H         143.9787  142.7507  168.2008 H       1  UNL1        0.1189
@<TRIPOS>BOND
     1    14    15    1
     2    15    16   ar
     3    16    17   ar
     4    17    18   ar
     5    18    19   ar
     6    19    12    1
     7    12     1    1
     8     1     2   ar
     9     2     3   ar
    10     3    21    1
    11    23    21    1
    12    23    24    1
    13    24    25    1
    14    25    26    1
    15    26    27    1
    16    26    28    1
    17    26    29    1
    18    29    30    1
    19    30    31    1
    20     3     4   ar
    21     4     5   ar
    22     5     6   ar
    23     6     7    1
    24     7     8   am
    25     7     9    2
    26    19    20   ar
    27    20    15   ar
    28     6     1   ar
    29    30    23    1
    30    12    13    1
    31    21    22    1
    32    31    32    1
    33    31    33    1
    34     8    10    1
    35     8    11    1
@<TRIPOS>MOLECULE
*****
 33 35 0 0 0
SMALL
GASTEIGER

@<TRIPOS>ATOM
      1 C         141.5965  141.6143  167.7968 C.ar    1  UNL1        0.1409
      2 N         142.1646  140.6992  166.7528 N.ar    1  UNL1       -0.1986
      3 C         142.8539  139.4312  167.1618 C.ar    1  UNL1        0.2181
      4 N         142.9750  139.0784  168.6146 N.ar    1  UNL1       -0.2120
      5 C         142.4068  139.9935  169.6586 C.ar    1  UNL1        0.1091
      6 C         141.7176  141.2614  169.2497 C.ar    1  UNL1        0.1040
      7 C         141.1495  142.1765  170.2936 C.2     1  UNL1        0.2470
      8 N         140.3500  141.6125  171.4306 N.am    1  UNL1       -0.3252
      9 O         141.3808  143.6557  170.2006 O.2     1  UNL1       -0.2702
     10 H         140.1982  140.6417  171.4917 H       1  UNL1        0.1453
     11 H         139.9771  142.2132  172.1158 H       1  UNL1        0.1453
     12 N         140.9073  142.8823  167.3879 N.pl3   1  UNL1       -0.2977
     13 H         141.1218  143.7282  167.8436 H       1  UNL1        0.1536
     14 C         138.0990  140.2384  163.9059 C.3     1  UNL1        0.0311
     15 C         138.4870  141.5395  164.5437 C.ar    1  UNL1       -0.0206
     16 C         137.8589  142.8196  164.0783 C.ar    1  UNL1       -0.0042
     17 C         138.2469  144.1207  164.7161 C.ar    1  UNL1        0.0009
     18 C         139.2630  144.1416  165.8192 C.ar    1  UNL1        0.0146
     19 C         139.8911  142.8614  166.2847 C.ar    1  UNL1        0.0491
     20 C         139.5031  141.5604  165.6469 C.ar    1  UNL1        0.0104
     21 N         143.4220  138.5161  166.1179 N.pl3   1  UNL1       -0.3033
     22 H         144.2462  138.0104  166.3025 H       1  UNL1        0.1496
     23 C         142.7343  138.3716  164.7926 C.3     1  UNL1        0.0862
     24 C         141.3328  137.8410  164.7289 C.3     1  UNL1        0.0265
     25 C         140.6450  137.6965  163.4036 C.3     1  UNL1        0.0683
     26 C         141.3589  138.0827  162.1421 C.3     1  UNL1        0.2653
     27 F         141.6172  138.3123  160.6825 F       1  UNL1       -0.2043
     28 F         140.0470  137.6317  161.5715 F       1  UNL1       -0.2043
     29 C         142.7605  138.6134  162.2060 C.3     1  UNL1        0.0837
     30 C         143.4481  138.7579  163.5312 C.3     1  UNL1        0.0744
     31 N         144.8497  139.2886  163.5950 N.3     1  UNL1       -0.3207
     32 H         145.1577  139.3194  164.5669 H       1  UNL1        0.1189
     33 H         144.8756  140.2287  163.2001 H       1  UNL1        0.1189
@<TRIPOS>BOND
     1    14    15    1
     2    15    16   ar
     3    16    17   ar
     4    17    18   ar
     5    18    19   ar
     6    19    12    1
     7    12     1    1
     8     1     2   ar
     9     2     3   ar
    10     3    21    1
    11    23    21    1
    12    23    24    1
    13    24    25    1
    14    25    26    1
    15    26    27    1
    16    26    28    1
    17    26    29    1
    18    29    30    1
    19    30    31    1
    20     3     4   ar
    21     4     5   ar
    22     5     6   ar
    23     6     7    1
    24     7     8   am
    25     7     9    2
    26    19    20   ar
    27    20    15   ar
    28     6     1   ar
    29    30    23    1
    30    12    13    1
    31    21    22    1
    32    31    32    1
    33    31    33    1
    34     8    10    1
    35     8    11    1
