@<TRIPOS>MOLECULE
*****
 34 38 0 0 0
SMALL
GASTEIGER

@<TRIPOS>ATOM
      1 N         137.5125  141.0390  162.4129 N.pl3   1  UNL1       -0.2802
      2 H         136.5538  141.1512  162.2193 H       1  UNL1        0.1552
      3 C         138.5138  141.9817  161.8141 C.ar    1  UNL1        0.2208
      4 N         138.2440  142.6152  160.4815 N.ar    1  UNL1       -0.2111
      5 C         139.2453  143.5579  159.8827 C.ar    1  UNL1        0.1147
      6 C         140.5165  143.8672  160.6165 C.ar    1  UNL1        0.0960
      7 CL        141.5178  144.8099  160.0177 Cl      1  UNL1       -0.0790
      8 C         140.7863  143.2337  161.9492 C.ar    1  UNL1        0.1138
      9 N         139.7850  142.2910  162.5479 N.ar    1  UNL1       -0.2111
     10 C         142.0575  143.5430  162.6830 C.ar    1  UNL1        0.1031
     11 C         142.4513  144.8789  163.2400 C.ar    1  UNL1        0.1196
     12 N         143.7952  144.7322  163.8899 N.ar    1  UNL1       -0.2248
     13 C         144.2320  143.3056  163.7346 C.ar    1  UNL1        0.1479
     14 C         145.4688  142.5809  164.1760 C.ar    1  UNL1        0.0374
     15 C         145.6317  141.1212  163.8715 C.ar    1  UNL1        0.0046
     16 C         144.5577  140.3863  163.1256 C.ar    1  UNL1        0.0191
     17 C         143.3209  141.1110  162.6842 C.ar    1  UNL1        0.0815
     18 N         143.1580  142.5706  162.9887 N.ar    1  UNL1       -0.2874
     19 C         138.4266  138.6255  162.7121 C.ar    1  UNL1        0.1520
     20 C         138.8860  137.5119  163.6060 C.ar    1  UNL1        0.0383
     21 C         138.8906  137.6982  165.0943 C.ar    1  UNL1        0.0077
     22 C         138.4358  138.9980  165.6889 C.ar    1  UNL1        0.0550
     23 C         137.9764  140.1116  164.7951 C.ar    1  UNL1        0.0223
     24 C         137.9719  139.9254  163.3066 C.ar    1  UNL1        0.0850
     25 C         138.4403  139.1843  167.1773 C.2     1  UNL1        0.2492
     26 O         137.4289  138.4718  168.0254 O.2     1  UNL1       -0.2699
     27 N         139.4563  140.0831  167.8174 N.am    1  UNL1       -0.2709
     28 C         139.4610  140.2695  169.3058 C.3     1  UNL1        0.1258
     29 C         140.4769  141.1683  169.9461 C.3     1  UNL1        0.1637
     30 O         141.4883  141.8808  169.0979 O.3     1  UNL1       -0.3501
     31 C         141.4838  141.6945  167.6095 C.3     1  UNL1        0.1637
     32 C         140.4677  140.7957  166.9693 C.3     1  UNL1        0.1258
     33 C         139.7180  138.3923  160.4697 C.3     1  UNL1        0.2525
     34 O         138.4221  138.4392  161.2237 O.3     1  UNL1       -0.4702
@<TRIPOS>BOND
     1    33    34    1
     2    34    19    1
     3    19    20   ar
     4    20    21   ar
     5    21    22   ar
     6    22    25    1
     7    25    26    2
     8    25    27   am
     9    27    28    1
    10    28    29    1
    11    29    30    1
    12    30    31    1
    13    31    32    1
    14    22    23   ar
    15    23    24   ar
    16    24     1    1
    17     1     3    1
    18     3     4   ar
    19     4     5   ar
    20     5     6   ar
    21     6     7    1
    22     6     8   ar
    23     8    10    1
    24    10    11   ar
    25    11    12   ar
    26    12    13   ar
    27    13    14   ar
    28    14    15   ar
    29    15    16   ar
    30    16    17   ar
    31    17    18   ar
    32     8     9   ar
    33    24    19   ar
    34     9     3   ar
    35    32    27    1
    36    18    10   ar
    37    18    13   ar
    38     1     2    1
@<TRIPOS>MOLECULE
*****
 34 38 0 0 0
SMALL
GASTEIGER

@<TRIPOS>ATOM
      1 N         137.3405  140.9182  162.4157 N.pl3   1  UNL1       -0.2802
      2 H         136.5004  140.7531  161.9296 H       1  UNL1        0.1552
      3 C         138.0447  142.2346  162.2706 C.ar    1  UNL1        0.2208
      4 N         137.6352  143.4017  163.1193 N.ar    1  UNL1       -0.2111
      5 C         138.3394  144.7182  162.9742 C.ar    1  UNL1        0.1147
      6 C         139.4531  144.8675  161.9804 C.ar    1  UNL1        0.0960
      7 CL        140.1573  146.1840  161.8353 Cl      1  UNL1       -0.0790
      8 C         139.8625  143.7003  161.1317 C.ar    1  UNL1        0.1138
      9 N         139.1583  142.3840  161.2768 N.ar    1  UNL1       -0.2111
     10 C         140.9761  143.8497  160.1379 C.ar    1  UNL1        0.1031
     11 C         142.3481  143.2547  160.2551 C.ar    1  UNL1        0.1196
     12 N         143.1331  143.6576  159.0421 N.ar    1  UNL1       -0.2248
     13 C         142.2464  144.5015  158.1753 C.ar    1  UNL1        0.1479
     14 C         142.4806  145.1772  156.8567 C.ar    1  UNL1        0.0374
     15 C         141.3817  145.9716  156.2155 C.ar    1  UNL1        0.0046
     16 C         140.0486  146.0904  156.8927 C.ar    1  UNL1        0.0191
     17 C         139.8143  145.4147  158.2113 C.ar    1  UNL1        0.0815
     18 N         140.9133  144.6203  158.8525 N.ar    1  UNL1       -0.2874
     19 C         138.4534  138.5880  162.7011 C.ar    1  UNL1        0.1520
     20 C         139.0291  137.5230  163.5869 C.ar    1  UNL1        0.0383
     21 C         139.0674  137.7234  165.0729 C.ar    1  UNL1        0.0077
     22 C         138.5301  138.9886  165.6732 C.ar    1  UNL1        0.0550
     23 C         137.9545  140.0535  164.7875 C.ar    1  UNL1        0.0223
     24 C         137.9161  139.8532  163.3014 C.ar    1  UNL1        0.0850
     25 C         138.5684  139.1890  167.1593 C.2     1  UNL1        0.2492
     26 O         137.5377  138.5351  168.0311 O.2     1  UNL1       -0.2699
     27 N         139.6375  140.0432  167.7735 N.am    1  UNL1       -0.2709
     28 C         139.6759  140.2436  169.2596 C.3     1  UNL1        0.1258
     29 C         140.7450  141.0979  169.8739 C.3     1  UNL1        0.1637
     30 O         141.7758  141.7517  169.0021 O.3     1  UNL1       -0.3501
     31 C         141.7374  141.5514  167.5160 C.3     1  UNL1        0.1637
     32 C         140.6683  140.6971  166.9017 C.3     1  UNL1        0.1258
     33 C         139.6903  138.3867  160.4252 C.3     1  UNL1        0.2525
     34 O         138.4151  138.3876  161.2150 O.3     1  UNL1       -0.4702
@<TRIPOS>BOND
     1    33    34    1
     2    34    19    1
     3    19    20   ar
     4    20    21   ar
     5    21    22   ar
     6    22    25    1
     7    25    26    2
     8    25    27   am
     9    27    28    1
    10    28    29    1
    11    29    30    1
    12    30    31    1
    13    31    32    1
    14    22    23   ar
    15    23    24   ar
    16    24     1    1
    17     1     3    1
    18     3     4   ar
    19     4     5   ar
    20     5     6   ar
    21     6     7    1
    22     6     8   ar
    23     8    10    1
    24    10    11   ar
    25    11    12   ar
    26    12    13   ar
    27    13    14   ar
    28    14    15   ar
    29    15    16   ar
    30    16    17   ar
    31    17    18   ar
    32     8     9   ar
    33    24    19   ar
    34     9     3   ar
    35    32    27    1
    36    18    10   ar
    37    18    13   ar
    38     1     2    1
@<TRIPOS>MOLECULE
*****
 34 38 0 0 0
SMALL
GASTEIGER

@<TRIPOS>ATOM
      1 N         144.5486  142.5360  160.4508 N.pl3   1  UNL1       -0.2802
      2 H         145.3863  142.6291  159.9420 H       1  UNL1        0.1552
      3 C         144.5025  141.6565  161.6650 C.ar    1  UNL1        0.2208
      4 N         145.6041  141.7223  162.6810 N.ar    1  UNL1       -0.2111
      5 C         145.5580  140.8428  163.8952 C.ar    1  UNL1        0.1147
      6 C         144.4103  139.8975  164.0935 C.ar    1  UNL1        0.0960
      7 CL        144.3642  139.0181  165.3078 Cl      1  UNL1       -0.0790
      8 C         143.3087  139.8318  163.0775 C.ar    1  UNL1        0.1138
      9 N         143.3548  140.7112  161.8633 N.ar    1  UNL1       -0.2111
     10 C         142.1610  138.8865  163.2758 C.ar    1  UNL1        0.1031
     11 C         141.9072  137.6316  162.4943 C.ar    1  UNL1        0.1196
     12 N         140.6550  136.9998  163.0260 N.ar    1  UNL1       -0.2248
     13 C         140.1348  137.8642  164.1360 C.ar    1  UNL1        0.1479
     14 C         138.9338  137.7402  165.0261 C.ar    1  UNL1        0.0374
     15 C         138.6637  138.7823  166.0706 C.ar    1  UNL1        0.0046
     16 C         139.5945  139.9484  166.2250 C.ar    1  UNL1        0.0191
     17 C         140.7954  140.0724  165.3349 C.ar    1  UNL1        0.0815
     18 N         141.0656  139.0303  164.2904 N.ar    1  UNL1       -0.2874
     19 C         143.0595  143.4977  158.5514 C.ar    1  UNL1        0.1520
     20 C         141.8293  144.2354  158.1125 C.ar    1  UNL1        0.0383
     21 C         140.8582  144.7489  159.1339 C.ar    1  UNL1        0.0077
     22 C         141.1173  144.5248  160.5942 C.ar    1  UNL1        0.0550
     23 C         142.3474  143.7871  161.0332 C.ar    1  UNL1        0.0223
     24 C         143.3186  143.2736  160.0118 C.ar    1  UNL1        0.0850
     25 C         140.1462  145.0383  161.6157 C.2     1  UNL1        0.2492
     26 O         140.0223  146.5134  161.8577 O.2     1  UNL1       -0.2699
     27 N         139.2990  144.0766  162.3950 N.am    1  UNL1       -0.2709
     28 C         138.3279  144.5900  163.4165 C.3     1  UNL1        0.1258
     29 C         137.4807  143.6283  164.1959 C.3     1  UNL1        0.1637
     30 O         137.6046  142.1532  163.9539 O.3     1  UNL1       -0.3501
     31 C         138.5757  141.6397  162.9325 C.3     1  UNL1        0.1637
     32 C         139.4230  142.6014  162.1530 C.3     1  UNL1        0.1258
     33 C         143.9036  141.5820  157.0127 C.3     1  UNL1        0.2525
     34 O         144.0306  142.9842  157.5300 O.3     1  UNL1       -0.4702
@<TRIPOS>BOND
     1    33    34    1
     2    34    19    1
     3    19    20   ar
     4    20    21   ar
     5    21    22   ar
     6    22    25    1
     7    25    26    2
     8    25    27   am
     9    27    28    1
    10    28    29    1
    11    29    30    1
    12    30    31    1
    13    31    32    1
    14    22    23   ar
    15    23    24   ar
    16    24     1    1
    17     1     3    1
    18     3     4   ar
    19     4     5   ar
    20     5     6   ar
    21     6     7    1
    22     6     8   ar
    23     8    10    1
    24    10    11   ar
    25    11    12   ar
    26    12    13   ar
    27    13    14   ar
    28    14    15   ar
    29    15    16   ar
    30    16    17   ar
    31    17    18   ar
    32     8     9   ar
    33    24    19   ar
    34     9     3   ar
    35    32    27    1
    36    18    10   ar
    37    18    13   ar
    38     1     2    1
@<TRIPOS>MOLECULE
*****
 34 38 0 0 0
SMALL
GASTEIGER

@<TRIPOS>ATOM
      1 N         137.3887  141.2419  163.3569 N.pl3   1  UNL1       -0.2802
      2 H         136.4400  141.0682  163.1595 H       1  UNL1        0.1552
      3 C         138.0502  142.4802  162.8286 C.ar    1  UNL1        0.2208
      4 N         137.8797  143.7861  163.5466 N.ar    1  UNL1       -0.2111
      5 C         138.5411  145.0244  163.0182 C.ar    1  UNL1        0.1147
      6 C         139.3731  144.9568  161.7719 C.ar    1  UNL1        0.0960
      7 CL        140.0345  146.1950  161.2436 Cl      1  UNL1       -0.0790
      8 C         139.5436  143.6508  161.0539 C.ar    1  UNL1        0.1138
      9 N         138.8821  142.4126  161.5823 N.ar    1  UNL1       -0.2111
     10 C         140.3755  143.5831  159.8076 C.ar    1  UNL1        0.1031
     11 C         139.9013  143.8725  158.4142 C.ar    1  UNL1        0.1196
     12 N         141.0605  143.6824  157.4814 N.ar    1  UNL1       -0.2248
     13 C         142.2510  143.2757  158.2982 C.ar    1  UNL1        0.1479
     14 C         143.6659  142.9532  157.9185 C.ar    1  UNL1        0.0374
     15 C         144.6574  142.5694  158.9766 C.ar    1  UNL1        0.0046
     16 C         144.2340  142.5080  160.4143 C.ar    1  UNL1        0.0191
     17 C         142.8192  142.8305  160.7939 C.ar    1  UNL1        0.0815
     18 N         141.8277  143.2143  159.7359 N.ar    1  UNL1       -0.2874
     19 C         138.5003  138.9107  163.6389 C.ar    1  UNL1        0.1520
     20 C         139.2844  137.9371  164.4681 C.ar    1  UNL1        0.0383
     21 C         139.7407  138.3212  165.8444 C.ar    1  UNL1        0.0077
     22 C         139.4131  139.6789  166.3915 C.ar    1  UNL1        0.0550
     23 C         138.6291  140.6524  165.5624 C.ar    1  UNL1        0.0223
     24 C         138.1727  140.2683  164.1860 C.ar    1  UNL1        0.0850
     25 C         139.8695  140.0630  167.7678 C.2     1  UNL1        0.2492
     26 O         139.0996  139.6010  168.9695 O.2     1  UNL1       -0.2699
     27 N         141.0956  140.9091  167.9424 N.am    1  UNL1       -0.2709
     28 C         141.5521  141.2933  169.3187 C.3     1  UNL1        0.1258
     29 C         142.7783  142.1394  169.4934 C.3     1  UNL1        0.1637
     30 O         143.5481  142.6014  168.2917 O.3     1  UNL1       -0.3501
     31 C         143.0917  142.2173  166.9154 C.3     1  UNL1        0.1637
     32 C         141.8655  141.3711  166.7408 C.3     1  UNL1        0.1258
     33 C         139.0402  138.0482  161.2483 C.3     1  UNL1        0.2525
     34 O         138.0440  138.5265  162.2626 O.3     1  UNL1       -0.4702
@<TRIPOS>BOND
     1    33    34    1
     2    34    19    1
     3    19    20   ar
     4    20    21   ar
     5    21    22   ar
     6    22    25    1
     7    25    26    2
     8    25    27   am
     9    27    28    1
    10    28    29    1
    11    29    30    1
    12    30    31    1
    13    31    32    1
    14    22    23   ar
    15    23    24   ar
    16    24     1    1
    17     1     3    1
    18     3     4   ar
    19     4     5   ar
    20     5     6   ar
    21     6     7    1
    22     6     8   ar
    23     8    10    1
    24    10    11   ar
    25    11    12   ar
    26    12    13   ar
    27    13    14   ar
    28    14    15   ar
    29    15    16   ar
    30    16    17   ar
    31    17    18   ar
    32     8     9   ar
    33    24    19   ar
    34     9     3   ar
    35    32    27    1
    36    18    10   ar
    37    18    13   ar
    38     1     2    1
@<TRIPOS>MOLECULE
*****
 34 38 0 0 0
SMALL
GASTEIGER

@<TRIPOS>ATOM
      1 N         142.7992  137.6278  162.0270 N.pl3   1  UNL1       -0.2802
      2 H         143.5194  137.0296  162.3314 H       1  UNL1        0.1552
      3 C         141.6420  137.9296  162.9323 C.ar    1  UNL1        0.2208
      4 N         141.3061  136.9955  164.0569 N.ar    1  UNL1       -0.2111
      5 C         140.1488  137.2972  164.9622 C.ar    1  UNL1        0.1147
      6 C         139.3275  138.5331  164.7431 C.ar    1  UNL1        0.0960
      7 CL        138.1702  138.8348  165.6485 Cl      1  UNL1       -0.0790
      8 C         139.6634  139.4672  163.6185 C.ar    1  UNL1        0.1138
      9 N         140.8206  139.1654  162.7132 N.ar    1  UNL1       -0.2111
     10 C         138.8420  140.7031  163.3993 C.ar    1  UNL1        0.1031
     11 C         137.7635  140.8741  162.3709 C.ar    1  UNL1        0.1196
     12 N         137.2100  142.2616  162.5061 N.ar    1  UNL1       -0.2248
     13 C         137.9463  142.9481  163.6181 C.ar    1  UNL1        0.1479
     14 C         137.8286  144.3259  164.1993 C.ar    1  UNL1        0.0374
     15 C         138.7196  144.7405  165.3325 C.ar    1  UNL1        0.0046
     16 C         139.7283  143.7772  165.8846 C.ar    1  UNL1        0.0191
     17 C         139.8460  142.3995  165.3034 C.ar    1  UNL1        0.0815
     18 N         138.9550  141.9849  164.1702 N.ar    1  UNL1       -0.2874
     19 C         143.7178  139.4423  160.4102 C.ar    1  UNL1        0.1520
     20 C         143.7778  140.0520  159.0409 C.ar    1  UNL1        0.0383
     21 C         142.9791  139.4569  157.9193 C.ar    1  UNL1        0.0077
     22 C         142.1205  138.2521  158.1669 C.ar    1  UNL1        0.0550
     23 C         142.0605  137.6425  159.5361 C.ar    1  UNL1        0.0223
     24 C         142.8592  138.2375  160.6578 C.ar    1  UNL1        0.0850
     25 C         141.3218  137.6571  157.0453 C.2     1  UNL1        0.2492
     26 O         140.0054  138.2630  156.6582 O.2     1  UNL1       -0.2699
     27 N         141.8395  136.4560  156.3110 N.am    1  UNL1       -0.2709
     28 C         141.0409  135.8608  155.1894 C.3     1  UNL1        0.1258
     29 C         141.5586  134.6597  154.4549 C.3     1  UNL1        0.1637
     30 O         142.8749  134.0538  154.8421 O.3     1  UNL1       -0.3501
     31 C         143.6736  134.6489  155.9637 C.3     1  UNL1        0.1637
     32 C         143.1559  135.8500  156.6982 C.3     1  UNL1        0.1258
     33 C         144.0007  141.2407  162.2637 C.3     1  UNL1        0.2525
     34 O         144.5165  140.0374  161.5318 O.3     1  UNL1       -0.4702
@<TRIPOS>BOND
     1    33    34    1
     2    34    19    1
     3    19    20   ar
     4    20    21   ar
     5    21    22   ar
     6    22    25    1
     7    25    26    2
     8    25    27   am
     9    27    28    1
    10    28    29    1
    11    29    30    1
    12    30    31    1
    13    31    32    1
    14    22    23   ar
    15    23    24   ar
    16    24     1    1
    17     1     3    1
    18     3     4   ar
    19     4     5   ar
    20     5     6   ar
    21     6     7    1
    22     6     8   ar
    23     8    10    1
    24    10    11   ar
    25    11    12   ar
    26    12    13   ar
    27    13    14   ar
    28    14    15   ar
    29    15    16   ar
    30    16    17   ar
    31    17    18   ar
    32     8     9   ar
    33    24    19   ar
    34     9     3   ar
    35    32    27    1
    36    18    10   ar
    37    18    13   ar
    38     1     2    1
@<TRIPOS>MOLECULE
*****
 34 38 0 0 0
SMALL
GASTEIGER

@<TRIPOS>ATOM
      1 N         137.9575  140.4452  160.8116 N.pl3   1  UNL1       -0.2802
      2 H         137.0678  140.1859  160.4795 H       1  UNL1        0.1552
      3 C         138.6716  139.5738  161.8020 C.ar    1  UNL1        0.2208
      4 N         139.6279  138.5222  161.3231 N.ar    1  UNL1       -0.2111
      5 C         140.3419  137.6508  162.3135 C.ar    1  UNL1        0.1147
      6 C         140.0997  137.8311  163.7828 C.ar    1  UNL1        0.0960
      7 CL        140.8137  136.9598  164.7732 Cl      1  UNL1       -0.0790
      8 C         139.1433  138.8829  164.2617 C.ar    1  UNL1        0.1138
      9 N         138.4293  139.7542  163.2713 N.ar    1  UNL1       -0.2111
     10 C         138.9010  139.0632  165.7310 C.ar    1  UNL1        0.1031
     11 C         137.8507  138.3655  166.5435 C.ar    1  UNL1        0.1196
     12 N         137.9671  138.8441  167.9604 N.ar    1  UNL1       -0.2248
     13 C         139.0892  139.8375  168.0235 C.ar    1  UNL1        0.1479
     14 C         139.6600  140.6362  169.1576 C.ar    1  UNL1        0.0374
     15 C         140.8080  141.5703  168.9138 C.ar    1  UNL1        0.0046
     16 C         141.3851  141.7058  167.5359 C.ar    1  UNL1        0.0191
     17 C         140.8144  140.9071  166.4019 C.ar    1  UNL1        0.0815
     18 N         139.6664  139.9729  166.6456 N.ar    1  UNL1       -0.2874
     19 C         138.5937  142.0432  158.8644 C.ar    1  UNL1        0.1520
     20 C         139.2353  143.3097  158.3801 C.ar    1  UNL1        0.0383
     21 C         139.8823  144.2445  159.3587 C.ar    1  UNL1        0.0077
     22 C         139.8877  143.9129  160.8216 C.ar    1  UNL1        0.0550
     23 C         139.2461  142.6464  161.3058 C.ar    1  UNL1        0.0223
     24 C         138.5991  141.7116  160.3273 C.ar    1  UNL1        0.0850
     25 C         140.5346  144.8477  161.8002 C.2     1  UNL1        0.2492
     26 O         139.8982  146.1709  162.1065 O.2     1  UNL1       -0.2699
     27 N         141.8180  144.4591  162.4723 N.am    1  UNL1       -0.2709
     28 C         142.4650  145.3938  163.4510 C.3     1  UNL1        0.1258
     29 C         143.7485  145.0054  164.1232 C.3     1  UNL1        0.1637
     30 O         144.3849  143.6821  163.8168 O.3     1  UNL1       -0.3501
     31 C         143.7380  142.7473  162.8382 C.3     1  UNL1        0.1637
     32 C         142.4545  143.1358  162.1660 C.3     1  UNL1        0.1258
     33 C         137.0636  141.6511  156.8016 C.3     1  UNL1        0.2525
     34 O         137.9468  141.1084  157.8858 O.3     1  UNL1       -0.4702
@<TRIPOS>BOND
     1    33    34    1
     2    34    19    1
     3    19    20   ar
     4    20    21   ar
     5    21    22   ar
     6    22    25    1
     7    25    26    2
     8    25    27   am
     9    27    28    1
    10    28    29    1
    11    29    30    1
    12    30    31    1
    13    31    32    1
    14    22    23   ar
    15    23    24   ar
    16    24     1    1
    17     1     3    1
    18     3     4   ar
    19     4     5   ar
    20     5     6   ar
    21     6     7    1
    22     6     8   ar
    23     8    10    1
    24    10    11   ar
    25    11    12   ar
    26    12    13   ar
    27    13    14   ar
    28    14    15   ar
    29    15    16   ar
    30    16    17   ar
    31    17    18   ar
    32     8     9   ar
    33    24    19   ar
    34     9     3   ar
    35    32    27    1
    36    18    10   ar
    37    18    13   ar
    38     1     2    1
@<TRIPOS>MOLECULE
*****
 34 38 0 0 0
SMALL
GASTEIGER

@<TRIPOS>ATOM
      1 N         137.7700  142.2910  162.0095 N.pl3   1  UNL1       -0.2802
      2 H         136.8492  142.4112  161.6823 H       1  UNL1        0.1552
      3 C         138.1371  141.0572  162.7795 C.ar    1  UNL1        0.2208
      4 N         138.0653  139.7121  162.1195 N.ar    1  UNL1       -0.2111
      5 C         138.4325  138.4783  162.8896 C.ar    1  UNL1        0.1147
      6 C         138.8715  138.5896  164.3196 C.ar    1  UNL1        0.0960
      7 CL        139.2387  137.3559  165.0896 Cl      1  UNL1       -0.0790
      8 C         138.9433  139.9348  164.9796 C.ar    1  UNL1        0.1138
      9 N         138.5761  141.1685  164.2095 N.ar    1  UNL1       -0.2111
     10 C         139.3823  140.0461  166.4096 C.ar    1  UNL1        0.1031
     11 C         138.6572  139.4923  167.6001 C.ar    1  UNL1        0.1196
     12 N         139.4503  139.8347  168.8264 N.ar    1  UNL1       -0.2248
     13 C         140.6655  140.6002  168.3937 C.ar    1  UNL1        0.1479
     14 C         141.8049  141.1952  169.1669 C.ar    1  UNL1        0.0374
     15 C         142.9023  141.9208  168.4464 C.ar    1  UNL1        0.0046
     16 C         142.8603  142.0515  166.9526 C.ar    1  UNL1        0.0191
     17 C         141.7209  141.4565  166.1795 C.ar    1  UNL1        0.0815
     18 N         140.6235  140.7309  166.9000 N.ar    1  UNL1       -0.2874
     19 C         138.9331  144.5232  162.6531 C.ar    1  UNL1        0.1520
     20 C         139.9688  145.5739  162.3814 C.ar    1  UNL1        0.0383
     21 C         140.8768  145.4428  161.1947 C.ar    1  UNL1        0.0077
     22 C         140.7492  144.2612  160.2796 C.ar    1  UNL1        0.0550
     23 C         139.7136  143.2106  160.5512 C.ar    1  UNL1        0.0223
     24 C         138.8055  143.3416  161.7379 C.ar    1  UNL1        0.0850
     25 C         141.6572  144.1301  159.0928 C.2     1  UNL1        0.2492
     26 O         142.8824  143.2689  159.1774 O.2     1  UNL1       -0.2699
     27 N         141.3399  144.8603  157.8216 N.am    1  UNL1       -0.2709
     28 C         142.2479  144.7293  156.6348 C.3     1  UNL1        0.1258
     29 C         141.9307  145.4595  155.3635 C.3     1  UNL1        0.1637
     30 O         140.7055  146.3207  155.2789 O.3     1  UNL1       -0.3501
     31 C         139.7975  146.4518  156.4657 C.3     1  UNL1        0.1637
     32 C         140.1147  145.7215  157.7370 C.3     1  UNL1        0.1258
     33 C         138.6042  144.7527  165.2200 C.3     1  UNL1        0.2525
     34 O         138.0251  144.6542  163.8398 O.3     1  UNL1       -0.4702
@<TRIPOS>BOND
     1    33    34    1
     2    34    19    1
     3    19    20   ar
     4    20    21   ar
     5    21    22   ar
     6    22    25    1
     7    25    26    2
     8    25    27   am
     9    27    28    1
    10    28    29    1
    11    29    30    1
    12    30    31    1
    13    31    32    1
    14    22    23   ar
    15    23    24   ar
    16    24     1    1
    17     1     3    1
    18     3     4   ar
    19     4     5   ar
    20     5     6   ar
    21     6     7    1
    22     6     8   ar
    23     8    10    1
    24    10    11   ar
    25    11    12   ar
    26    12    13   ar
    27    13    14   ar
    28    14    15   ar
    29    15    16   ar
    30    16    17   ar
    31    17    18   ar
    32     8     9   ar
    33    24    19   ar
    34     9     3   ar
    35    32    27    1
    36    18    10   ar
    37    18    13   ar
    38     1     2    1
@<TRIPOS>MOLECULE
*****
 34 38 0 0 0
SMALL
GASTEIGER

@<TRIPOS>ATOM
      1 N         144.7261  142.8708  160.6856 N.pl3   1  UNL1       -0.2802
      2 H         145.2953  143.6687  160.7784 H       1  UNL1        0.1552
      3 C         144.6257  141.8860  161.8126 C.ar    1  UNL1        0.2208
      4 N         145.6976  141.8335  162.8605 N.ar    1  UNL1       -0.2111
      5 C         145.5972  140.8488  163.9875 C.ar    1  UNL1        0.1147
      6 C         144.4248  139.9164  164.0665 C.ar    1  UNL1        0.0960
      7 CL        144.3244  138.9316  165.1935 Cl      1  UNL1       -0.0790
      8 C         143.3528  139.9688  163.0185 C.ar    1  UNL1        0.1138
      9 N         143.4533  140.9536  161.8916 N.ar    1  UNL1       -0.2111
     10 C         142.1804  139.0365  163.0975 C.ar    1  UNL1        0.1031
     11 C         141.9159  137.8735  162.1878 C.ar    1  UNL1        0.1196
     12 N         140.6387  137.2217  162.6283 N.ar    1  UNL1       -0.2248
     13 C         140.1139  137.9818  163.8102 C.ar    1  UNL1        0.1479
     14 C         138.8916  137.7975  164.6597 C.ar    1  UNL1        0.0374
     15 C         138.6220  138.7349  165.7993 C.ar    1  UNL1        0.0046
     16 C         139.5749  139.8565  166.0894 C.ar    1  UNL1        0.0191
     17 C         140.7972  140.0407  165.2398 C.ar    1  UNL1        0.0815
     18 N         141.0668  139.1034  164.1002 N.ar    1  UNL1       -0.2874
     19 C         142.7033  143.4145  159.1485 C.ar    1  UNL1        0.1520
     20 C         141.9366  143.1836  157.8800 C.ar    1  UNL1        0.0383
     21 C         142.4260  142.1781  156.8803 C.ar    1  UNL1        0.0077
     22 C         143.6821  141.4035  157.1490 C.ar    1  UNL1        0.0550
     23 C         144.4487  141.6344  158.4175 C.ar    1  UNL1        0.0223
     24 C         143.9594  142.6399  159.4172 C.ar    1  UNL1        0.0850
     25 C         144.1715  140.3979  156.1493 C.2     1  UNL1        0.2492
     26 O         145.0282  140.8389  154.9998 O.2     1  UNL1       -0.2699
     27 N         143.8041  138.9514  156.2993 N.am    1  UNL1       -0.2709
     28 C         144.2935  137.9458  155.2996 C.3     1  UNL1        0.1258
     29 C         143.9262  136.4992  155.4495 C.3     1  UNL1        0.1637
     30 O         143.0695  136.0581  156.5990 O.3     1  UNL1       -0.3501
     31 C         142.5801  137.0637  157.5987 C.3     1  UNL1        0.1637
     32 C         142.9474  138.5104  157.4488 C.3     1  UNL1        0.1258
     33 C         141.3723  143.9764  161.3079 C.3     1  UNL1        0.2525
     34 O         142.2139  144.4201  160.1482 O.3     1  UNL1       -0.4702
@<TRIPOS>BOND
     1    33    34    1
     2    34    19    1
     3    19    20   ar
     4    20    21   ar
     5    21    22   ar
     6    22    25    1
     7    25    26    2
     8    25    27   am
     9    27    28    1
    10    28    29    1
    11    29    30    1
    12    30    31    1
    13    31    32    1
    14    22    23   ar
    15    23    24   ar
    16    24     1    1
    17     1     3    1
    18     3     4   ar
    19     4     5   ar
    20     5     6   ar
    21     6     7    1
    22     6     8   ar
    23     8    10    1
    24    10    11   ar
    25    11    12   ar
    26    12    13   ar
    27    13    14   ar
    28    14    15   ar
    29    15    16   ar
    30    16    17   ar
    31    17    18   ar
    32     8     9   ar
    33    24    19   ar
    34     9     3   ar
    35    32    27    1
    36    18    10   ar
    37    18    13   ar
    38     1     2    1
@<TRIPOS>MOLECULE
*****
 34 38 0 0 0
SMALL
GASTEIGER

@<TRIPOS>ATOM
      1 N         144.3503  140.1797  161.7973 N.pl3   1  UNL1       -0.2802
      2 H         145.3150  140.0024  161.7129 H       1  UNL1        0.1552
      3 C         143.7200  141.2897  161.0095 C.ar    1  UNL1        0.2208
      4 N         144.2254  141.6147  159.6351 N.ar    1  UNL1       -0.2111
      5 C         143.5951  142.7247  158.8473 C.ar    1  UNL1        0.1147
      6 C         142.4595  143.5097  159.4339 C.ar    1  UNL1        0.0960
      7 CL        141.8292  144.6197  158.6461 Cl      1  UNL1       -0.0790
      8 C         141.9541  143.1847  160.8083 C.ar    1  UNL1        0.1138
      9 N         142.5843  142.0747  161.5960 N.ar    1  UNL1       -0.2111
     10 C         140.8184  143.9697  161.3949 C.ar    1  UNL1        0.1031
     11 C         140.4807  145.3978  161.0845 C.ar    1  UNL1        0.1196
     12 N         139.2747  145.7751  161.8927 N.ar    1  UNL1       -0.2248
     13 C         138.8670  144.5801  162.7025 C.ar    1  UNL1        0.1479
     14 C         137.7502  144.3639  163.6802 C.ar    1  UNL1        0.0374
     15 C         137.5875  143.0318  164.3504 C.ar    1  UNL1        0.0046
     16 C         138.5416  141.9160  164.0427 C.ar    1  UNL1        0.0191
     17 C         139.6584  142.1322  163.0650 C.ar    1  UNL1        0.0815
     18 N         139.8210  143.4643  162.3948 N.ar    1  UNL1       -0.2874
     19 C         142.4280  138.4678  162.1503 C.ar    1  UNL1        0.1520
     20 C         141.5885  137.6279  163.0668 C.ar    1  UNL1        0.0383
     21 C         141.8317  137.6600  164.5466 C.ar    1  UNL1        0.0077
     22 C         142.9144  138.5320  165.1099 C.ar    1  UNL1        0.0550
     23 C         143.7539  139.3719  164.1935 C.ar    1  UNL1        0.0223
     24 C         143.5108  139.3398  162.7136 C.ar    1  UNL1        0.0850
     25 C         143.1577  138.5641  166.5897 C.2     1  UNL1        0.2492
     26 O         144.2346  137.7108  167.1915 O.2     1  UNL1       -0.2699
     27 N         142.3240  139.4496  167.4677 N.am    1  UNL1       -0.2709
     28 C         142.5671  139.4818  168.9476 C.3     1  UNL1        0.1258
     29 C         141.7335  140.3672  169.8256 C.3     1  UNL1        0.1637
     30 O         140.6566  141.2205  169.2239 O.3     1  UNL1       -0.3501
     31 C         140.4133  141.1884  167.7440 C.3     1  UNL1        0.1637
     32 C         141.2471  140.3029  166.8660 C.3     1  UNL1        0.1258
     33 C         142.9719  137.5005  159.8011 C.3     1  UNL1        0.2525
     34 O         142.1848  138.4357  160.6705 O.3     1  UNL1       -0.4702
@<TRIPOS>BOND
     1    33    34    1
     2    34    19    1
     3    19    20   ar
     4    20    21   ar
     5    21    22   ar
     6    22    25    1
     7    25    26    2
     8    25    27   am
     9    27    28    1
    10    28    29    1
    11    29    30    1
    12    30    31    1
    13    31    32    1
    14    22    23   ar
    15    23    24   ar
    16    24     1    1
    17     1     3    1
    18     3     4   ar
    19     4     5   ar
    20     5     6   ar
    21     6     7    1
    22     6     8   ar
    23     8    10    1
    24    10    11   ar
    25    11    12   ar
    26    12    13   ar
    27    13    14   ar
    28    14    15   ar
    29    15    16   ar
    30    16    17   ar
    31    17    18   ar
    32     8     9   ar
    33    24    19   ar
    34     9     3   ar
    35    32    27    1
    36    18    10   ar
    37    18    13   ar
    38     1     2    1
