@<TRIPOS>MOLECULE
*****
 40 45 0 0 0
SMALL
GASTEIGER

@<TRIPOS>ATOM
      1 C         143.4272  139.3351  163.7124 C.ar    1  UNL1        0.1336
      2 C         143.0926  138.4892  164.9051 C.ar    1  UNL1        0.0346
      3 C         142.3271  139.0794  166.0521 C.ar    1  UNL1        0.0090
      4 C         141.8962  140.5154  166.0064 C.ar    1  UNL1        0.0728
      5 C         142.2307  141.3612  164.8137 C.ar    1  UNL1        0.1048
      6 N         142.9962  140.7711  163.6667 N.ar    1  UNL1       -0.2289
      7 C         141.1307  141.1056  167.1534 C.2     1  UNL1        0.2505
      8 O         139.6312  141.0661  167.1539 O.2     1  UNL1       -0.2699
      9 N         141.8646  141.7353  168.3001 N.am    1  UNL1       -0.2759
     10 C         143.3540  141.8483  168.4381 C.3     1  UNL1        0.0955
     11 C         143.6480  142.5454  169.7333 C.3     1  UNL1        0.0233
     12 C         142.3403  142.8633  170.3957 C.3     1  UNL1        0.0233
     13 C         141.2381  142.3627  169.5100 C.3     1  UNL1        0.0955
     14 C         140.3551  141.7692  168.4390 C.3     1  UNL1        0.1134
     15 N         141.1206  141.1790  167.2919 N.pl3   1  UNL1       -0.2748
     16 C         142.6201  141.2186  167.2915 C.3     1  UNL1        0.1134
     17 C         140.3866  140.5493  166.1452 C.ar    1  UNL1        0.2203
     18 N         139.9699  141.3854  164.9716 N.ar    1  UNL1       -0.2121
     19 C         139.2359  140.7557  163.8251 C.ar    1  UNL1        0.1072
     20 C         138.9186  139.2899  163.8521 C.ar    1  UNL1        0.1097
     21 C         139.3352  138.4538  165.0257 C.ar    1  UNL1        0.1072
     22 N         140.0692  139.0835  166.1722 N.ar    1  UNL1       -0.2121
     23 C         138.1846  138.6602  162.7055 C.3     1  UNL1        0.4215
     24 F         137.4505  138.0305  161.5588 F       1  UNL1       -0.1657
     25 F         137.7283  140.0156  162.2532 F       1  UNL1       -0.1657
     26 F         138.6408  137.3048  163.1577 F       1  UNL1       -0.1657
     27 N         144.1927  138.7449  162.5653 N.pl3   1  UNL1       -0.2781
     28 H         145.0208  138.2400  162.7341 H       1  UNL1        0.1555
     29 C         142.4702  138.6156  159.0895 C.ar    1  UNL1        0.0969
     30 C         143.3950  139.7831  158.9115 C.ar    1  UNL1        0.0578
     31 S         144.1528  139.9737  160.1919 S.2     1  UNL1       -0.0508
     32 C         143.6963  138.9239  161.1612 C.ar    1  UNL1        0.1646
     33 N         142.6565  138.0846  160.4799 N.ar    1  UNL1       -0.2234
     34 C         140.5491  136.0538  154.8909 C.3     1  UNL1        0.0594
     35 C         140.6421  136.8966  156.1283 C.ar    1  UNL1        0.0883
     36 N         139.4994  137.5854  156.8139 N.ar    1  UNL1       -0.2470
     37 C         140.0451  138.3131  158.0066 C.ar    1  UNL1        0.0670
     38 C         139.2504  139.1354  158.9773 C.3     1  UNL1        0.0527
     39 C         141.5251  138.0742  158.0581 C.ar    1  UNL1        0.0623
     40 S         141.8940  137.1988  156.8973 S.2     1  UNL1       -0.0696
@<TRIPOS>BOND
     1    34    35    1
     2    35    36   ar
     3    36    37   ar
     4    37    38    1
     5    37    39   ar
     6    39    29    1
     7    29    30   ar
     8    30    31   ar
     9    31    32   ar
    10    32    27    1
    11    27     1    1
    12     1     2   ar
    13     2     3   ar
    14     3     4   ar
    15     4     7    1
    16     7     8    2
    17     7     9   am
    18     9    10    1
    19    10    11    1
    20    11    12    1
    21    12    13    1
    22    13    14    1
    23    14    15    1
    24    15    17    1
    25    17    18   ar
    26    18    19   ar
    27    19    20   ar
    28    20    23    1
    29    23    24    1
    30    23    25    1
    31    23    26    1
    32    20    21   ar
    33    21    22   ar
    34    15    16    1
    35     4     5   ar
    36     5     6   ar
    37    32    33   ar
    38    39    40   ar
    39    40    35   ar
    40    33    29   ar
    41     6     1   ar
    42    13     9    1
    43    22    17   ar
    44    16    10    1
    45    27    28    1
@<TRIPOS>MOLECULE
*****
 40 45 0 0 0
SMALL
GASTEIGER

@<TRIPOS>ATOM
      1 C         140.5144  143.8717  163.5382 C.ar    1  UNL1        0.1336
      2 C         139.6036  143.7969  164.7278 C.ar    1  UNL1        0.0346
      3 C         139.8527  142.7780  165.8000 C.ar    1  UNL1        0.0090
      4 C         141.0123  141.8339  165.6828 C.ar    1  UNL1        0.0728
      5 C         141.9230  141.9087  164.4932 C.ar    1  UNL1        0.1048
      6 N         141.6741  142.9276  163.4210 N.ar    1  UNL1       -0.2289
      7 C         141.2613  140.8150  166.7551 C.2     1  UNL1        0.2505
      8 O         140.6516  139.4487  166.6475 O.2     1  UNL1       -0.2699
      9 N         142.1200  141.1623  167.9349 N.am    1  UNL1       -0.2759
     10 C         142.7932  142.4805  168.1778 C.3     1  UNL1        0.0955
     11 C         143.5455  142.3854  169.4720 C.3     1  UNL1        0.0233
     12 C         143.3372  141.0083  170.0290 C.3     1  UNL1        0.0233
     13 C         142.4562  140.2524  169.0790 C.3     1  UNL1        0.0955
     14 C         141.5738  139.7480  167.9627 C.3     1  UNL1        0.1134
     15 N         141.3248  140.7670  166.8904 N.pl3   1  UNL1       -0.2748
     16 C         141.9345  142.1332  166.9980 C.3     1  UNL1        0.1134
     17 C         140.4661  140.4196  165.7105 C.ar    1  UNL1        0.2203
     18 N         138.9862  140.6585  165.7638 N.ar    1  UNL1       -0.2121
     19 C         138.1275  140.3111  164.5840 C.ar    1  UNL1        0.1072
     20 C         138.7487  139.7249  163.3510 C.ar    1  UNL1        0.1097
     21 C         140.2286  139.4860  163.2977 C.ar    1  UNL1        0.1072
     22 N         141.0873  139.8334  164.4775 N.ar    1  UNL1       -0.2121
     23 C         137.8900  139.3775  162.1712 C.3     1  UNL1        0.4215
     24 F         137.0312  139.0302  160.9913 F       1  UNL1       -0.1657
     25 F         138.1078  137.9184  162.4421 F       1  UNL1       -0.1657
     26 F         137.6721  140.8367  161.9002 F       1  UNL1       -0.1657
     27 N         140.2655  144.8906  162.4659 N.pl3   1  UNL1       -0.2781
     28 H         140.2311  145.8476  162.6946 H       1  UNL1        0.1555
     29 C         139.2845  143.2490  159.0883 C.ar    1  UNL1        0.0969
     30 C         140.2485  144.3027  158.6294 C.ar    1  UNL1        0.0578
     31 S         140.7333  145.0458  159.8387 S.2     1  UNL1       -0.0508
     32 C         140.0690  144.4515  161.0451 C.ar    1  UNL1        0.1646
     33 N         139.1736  143.3411  160.5814 N.ar    1  UNL1       -0.2234
     34 C         136.0460  141.2193  155.4451 C.3     1  UNL1        0.0594
     35 C         137.0703  141.3415  156.5341 C.ar    1  UNL1        0.0883
     36 N         137.8142  140.2081  157.1761 N.ar    1  UNL1       -0.2470
     37 C         138.7342  140.7848  158.2110 C.ar    1  UNL1        0.0670
     38 C         139.6659  140.0080  159.0933 C.3     1  UNL1        0.0527
     39 C         138.5589  142.2745  158.2087 C.ar    1  UNL1        0.0623
     40 S         137.5305  142.6185  157.1723 S.2     1  UNL1       -0.0696
@<TRIPOS>BOND
     1    34    35    1
     2    35    36   ar
     3    36    37   ar
     4    37    38    1
     5    37    39   ar
     6    39    29    1
     7    29    30   ar
     8    30    31   ar
     9    31    32   ar
    10    32    27    1
    11    27     1    1
    12     1     2   ar
    13     2     3   ar
    14     3     4   ar
    15     4     7    1
    16     7     8    2
    17     7     9   am
    18     9    10    1
    19    10    11    1
    20    11    12    1
    21    12    13    1
    22    13    14    1
    23    14    15    1
    24    15    17    1
    25    17    18   ar
    26    18    19   ar
    27    19    20   ar
    28    20    23    1
    29    23    24    1
    30    23    25    1
    31    23    26    1
    32    20    21   ar
    33    21    22   ar
    34    15    16    1
    35     4     5   ar
    36     5     6   ar
    37    32    33   ar
    38    39    40   ar
    39    40    35   ar
    40    33    29   ar
    41     6     1   ar
    42    13     9    1
    43    22    17   ar
    44    16    10    1
    45    27    28    1
@<TRIPOS>MOLECULE
*****
 40 45 0 0 0
SMALL
GASTEIGER

@<TRIPOS>ATOM
      1 C         138.7475  139.7361  163.2933 C.ar    1  UNL1        0.1336
      2 C         138.9631  138.4675  164.0642 C.ar    1  UNL1        0.0346
      3 C         139.8063  138.4780  165.3048 C.ar    1  UNL1        0.0090
      4 C         140.4337  139.7569  165.7744 C.ar    1  UNL1        0.0728
      5 C         140.2181  141.0254  165.0035 C.ar    1  UNL1        0.1048
      6 N         139.3750  141.0150  163.7630 N.ar    1  UNL1       -0.2289
      7 C         141.2769  139.7672  167.0150 C.2     1  UNL1        0.2505
      8 O         142.7615  139.5782  166.9144 O.2     1  UNL1       -0.2699
      9 N         140.6354  139.9667  168.3561 N.am    1  UNL1       -0.2759
     10 C         139.1711  140.1674  168.6120 C.3     1  UNL1        0.0955
     11 C         138.9763  140.3252  170.0909 C.3     1  UNL1        0.0233
     12 C         140.3202  140.2220  170.7490 C.3     1  UNL1        0.0233
     13 C         141.3457  140.0005  169.6769 C.3     1  UNL1        0.0955
     14 C         142.1403  139.7892  168.4108 C.3     1  UNL1        0.1134
     15 N         141.2972  139.7789  167.1703 N.pl3   1  UNL1       -0.2748
     16 C         139.8126  139.9679  167.2708 C.3     1  UNL1        0.1134
     17 C         141.9387  139.5794  165.8290 C.ar    1  UNL1        0.2203
     18 N         142.0313  138.2033  165.2392 N.ar    1  UNL1       -0.2121
     19 C         142.6728  138.0039  163.8981 C.ar    1  UNL1        0.1072
     20 C         143.2217  139.1805  163.1468 C.ar    1  UNL1        0.1097
     21 C         143.1292  140.5565  163.7367 C.ar    1  UNL1        0.1072
     22 N         142.4877  140.7559  165.0778 N.ar    1  UNL1       -0.2121
     23 C         143.8632  138.9809  161.8057 C.3     1  UNL1        0.4215
     24 F         144.5048  138.7815  160.4645 F       1  UNL1       -0.1657
     25 F         142.9383  137.8318  161.5341 F       1  UNL1       -0.1657
     26 F         144.7882  140.1301  162.0772 F       1  UNL1       -0.1657
     27 N         137.9043  139.7257  162.0527 N.pl3   1  UNL1       -0.2781
     28 H         136.9225  139.7220  162.1249 H       1  UNL1        0.1555
     29 C         140.1646  139.3770  158.9167 C.ar    1  UNL1        0.0969
     30 C         138.9588  140.0505  158.3315 C.ar    1  UNL1        0.0578
     31 S         137.9653  140.2631  159.4351 S.2     1  UNL1       -0.0508
     32 C         138.5571  139.7210  160.7023 C.ar    1  UNL1        0.1646
     33 N         139.9163  139.1733  160.3820 N.ar    1  UNL1       -0.2234
     34 C         143.5852  136.6438  155.9654 C.3     1  UNL1        0.0594
     35 C         142.9737  137.7209  156.8115 C.ar    1  UNL1        0.0883
     36 N         143.6358  139.0032  157.2208 N.ar    1  UNL1       -0.2470
     37 C         142.6641  139.7796  158.0592 C.ar    1  UNL1        0.0670
     38 C         142.9116  141.1226  158.6797 C.3     1  UNL1        0.0527
     39 C         141.4015  138.9772  158.1681 C.ar    1  UNL1        0.0623
     40 S         141.5928  137.7049  157.3970 S.2     1  UNL1       -0.0696
@<TRIPOS>BOND
     1    34    35    1
     2    35    36   ar
     3    36    37   ar
     4    37    38    1
     5    37    39   ar
     6    39    29    1
     7    29    30   ar
     8    30    31   ar
     9    31    32   ar
    10    32    27    1
    11    27     1    1
    12     1     2   ar
    13     2     3   ar
    14     3     4   ar
    15     4     7    1
    16     7     8    2
    17     7     9   am
    18     9    10    1
    19    10    11    1
    20    11    12    1
    21    12    13    1
    22    13    14    1
    23    14    15    1
    24    15    17    1
    25    17    18   ar
    26    18    19   ar
    27    19    20   ar
    28    20    23    1
    29    23    24    1
    30    23    25    1
    31    23    26    1
    32    20    21   ar
    33    21    22   ar
    34    15    16    1
    35     4     5   ar
    36     5     6   ar
    37    32    33   ar
    38    39    40   ar
    39    40    35   ar
    40    33    29   ar
    41     6     1   ar
    42    13     9    1
    43    22    17   ar
    44    16    10    1
    45    27    28    1
@<TRIPOS>MOLECULE
*****
 40 45 0 0 0
SMALL
GASTEIGER

@<TRIPOS>ATOM
      1 C         143.2648  139.0904  163.1215 C.ar    1  UNL1        0.1336
      2 C         142.5243  137.9411  163.7388 C.ar    1  UNL1        0.0346
      3 C         141.5869  138.1818  164.8847 C.ar    1  UNL1        0.0090
      4 C         141.3899  139.5716  165.4134 C.ar    1  UNL1        0.0728
      5 C         142.1303  140.7208  164.7961 C.ar    1  UNL1        0.1048
      6 N         143.0678  140.4802  163.6502 N.ar    1  UNL1       -0.2289
      7 C         140.4524  139.8122  166.5593 C.2     1  UNL1        0.2505
      8 O         138.9909  140.0285  166.3000 O.2     1  UNL1       -0.2699
      9 N         140.9764  139.8366  167.9646 N.am    1  UNL1       -0.2759
     10 C         142.4049  139.6375  168.3765 C.3     1  UNL1        0.0955
     11 C         142.4753  139.7421  169.8712 C.3     1  UNL1        0.0233
     12 C         141.0902  140.0059  170.3831 C.3     1  UNL1        0.0233
     13 C         140.1638  140.0643  169.2048 C.3     1  UNL1        0.0955
     14 C         139.4819  140.0700  167.8579 C.3     1  UNL1        0.1134
     15 N         140.4194  139.8294  166.7119 N.pl3   1  UNL1       -0.2748
     16 C         141.8809  139.6131  166.9712 C.3     1  UNL1        0.1134
     17 C         139.8954  139.8050  165.3066 C.ar    1  UNL1        0.2203
     18 N         139.3530  138.5307  164.7303 N.ar    1  UNL1       -0.2121
     19 C         138.8290  138.5064  163.3251 C.ar    1  UNL1        0.1072
     20 C         138.8473  139.7563  162.4961 C.ar    1  UNL1        0.1097
     21 C         139.3896  141.0307  163.0723 C.ar    1  UNL1        0.1072
     22 N         139.9137  141.0550  164.4775 N.ar    1  UNL1       -0.2121
     23 C         138.3233  139.7319  161.0908 C.3     1  UNL1        0.4215
     24 F         137.7992  139.7076  159.6855 F       1  UNL1       -0.1657
     25 F         137.3375  138.6694  161.4768 F       1  UNL1       -0.1657
     26 F         139.3090  140.7946  160.7048 F       1  UNL1       -0.1657
     27 N         144.2023  138.8498  161.9755 N.pl3   1  UNL1       -0.2781
     28 H         145.1561  138.6771  162.1478 H       1  UNL1        0.1555
     29 C         142.8089  138.1620  158.4188 C.ar    1  UNL1        0.0969
     30 C         142.9770  139.6520  158.3811 C.ar    1  UNL1        0.0578
     31 S         143.5195  140.0911  159.7089 S.2     1  UNL1       -0.0508
     32 C         143.6866  138.8723  160.5672 C.ar    1  UNL1        0.1646
     33 N         143.2475  137.6801  159.7699 N.ar    1  UNL1       -0.2234
     34 C         142.5706  134.6547  154.4788 C.3     1  UNL1        0.0594
     35 C         142.1834  135.6922  155.4906 C.ar    1  UNL1        0.0883
     36 N         140.8142  136.2769  155.6741 N.ar    1  UNL1       -0.2470
     37 C         140.8819  137.2732  156.7934 C.ar    1  UNL1        0.0670
     38 C         139.7393  138.0942  157.3132 C.3     1  UNL1        0.0527
     39 C         142.2928  137.3043  157.3016 C.ar    1  UNL1        0.0623
     40 S         143.0972  136.3272  156.4964 S.2     1  UNL1       -0.0696
@<TRIPOS>BOND
     1    34    35    1
     2    35    36   ar
     3    36    37   ar
     4    37    38    1
     5    37    39   ar
     6    39    29    1
     7    29    30   ar
     8    30    31   ar
     9    31    32   ar
    10    32    27    1
    11    27     1    1
    12     1     2   ar
    13     2     3   ar
    14     3     4   ar
    15     4     7    1
    16     7     8    2
    17     7     9   am
    18     9    10    1
    19    10    11    1
    20    11    12    1
    21    12    13    1
    22    13    14    1
    23    14    15    1
    24    15    17    1
    25    17    18   ar
    26    18    19   ar
    27    19    20   ar
    28    20    23    1
    29    23    24    1
    30    23    25    1
    31    23    26    1
    32    20    21   ar
    33    21    22   ar
    34    15    16    1
    35     4     5   ar
    36     5     6   ar
    37    32    33   ar
    38    39    40   ar
    39    40    35   ar
    40    33    29   ar
    41     6     1   ar
    42    13     9    1
    43    22    17   ar
    44    16    10    1
    45    27    28    1
@<TRIPOS>MOLECULE
*****
 40 45 0 0 0
SMALL
GASTEIGER

@<TRIPOS>ATOM
      1 C         142.6443  143.4685  163.9422 C.ar    1  UNL1        0.1336
      2 C         143.5998  143.0706  165.0279 C.ar    1  UNL1        0.0346
      3 C         143.1180  142.2495  166.1871 C.ar    1  UNL1        0.0090
      4 C         141.6808  141.8264  166.2605 C.ar    1  UNL1        0.0728
      5 C         140.7254  142.2243  165.1748 C.ar    1  UNL1        0.1048
      6 N         141.2071  143.0454  164.0157 N.ar    1  UNL1       -0.2289
      7 C         141.1990  141.0052  167.4197 C.2     1  UNL1        0.2505
      8 O         141.2383  139.5076  167.3456 O.2     1  UNL1       -0.2699
      9 N         140.6780  141.6818  168.6529 N.am    1  UNL1       -0.2759
     10 C         140.5785  143.1625  168.8709 C.3     1  UNL1        0.0955
     11 C         140.0040  143.3923  170.2374 C.3     1  UNL1        0.0233
     12 C         139.7485  142.0535  170.8639 C.3     1  UNL1        0.0233
     13 C         140.1651  140.9964  169.8846 C.3     1  UNL1        0.0955
     14 C         140.6569  140.1672  168.7229 C.3     1  UNL1        0.1134
     15 N         141.1387  140.9883  167.5637 N.pl3   1  UNL1       -0.2748
     16 C         141.0995  142.4860  167.6377 C.3     1  UNL1        0.1134
     17 C         141.6598  140.3117  166.3304 C.ar    1  UNL1        0.2203
     18 N         143.1191  139.9851  166.2140 N.ar    1  UNL1       -0.2121
     19 C         143.6401  139.3085  164.9808 C.ar    1  UNL1        0.1072
     20 C         142.7018  138.9586  163.8641 C.ar    1  UNL1        0.1097
     21 C         141.2424  139.2853  163.9805 C.ar    1  UNL1        0.1072
     22 N         140.7214  139.9618  165.2137 N.ar    1  UNL1       -0.2121
     23 C         143.2229  138.2820  162.6309 C.3     1  UNL1        0.4215
     24 F         143.7439  137.6054  161.3977 F       1  UNL1       -0.1657
     25 F         144.5097  139.0422  162.7575 F       1  UNL1       -0.1657
     26 F         141.9360  137.5218  162.5042 F       1  UNL1       -0.1657
     27 N         143.1261  144.2897  162.7830 N.pl3   1  UNL1       -0.2781
     28 H         143.5231  145.1769  162.9395 H       1  UNL1        0.1555
     29 C         143.4780  142.6017  159.3057 C.ar    1  UNL1        0.0969
     30 C         142.1493  143.2831  159.1640 C.ar    1  UNL1        0.0578
     31 S         141.8557  143.9984  160.4494 S.2     1  UNL1       -0.0508
     32 C         143.0030  143.7590  161.3854 C.ar    1  UNL1        0.1646
     33 N         144.0057  142.8958  160.6787 N.ar    1  UNL1       -0.2234
     34 C         146.6064  141.1312  155.3141 C.3     1  UNL1        0.0594
     35 C         145.5975  141.0960  156.4236 C.ar    1  UNL1        0.0883
     36 N         144.8190  139.8938  156.8696 N.ar    1  UNL1       -0.2470
     37 C         143.9303  140.3115  158.0035 C.ar    1  UNL1        0.0670
     38 C         142.9794  139.4246  158.7512 C.3     1  UNL1        0.0527
     39 C         144.1595  141.7718  158.2583 C.ar    1  UNL1        0.0623
     40 S         145.1899  142.2566  157.2819 S.2     1  UNL1       -0.0696
@<TRIPOS>BOND
     1    34    35    1
     2    35    36   ar
     3    36    37   ar
     4    37    38    1
     5    37    39   ar
     6    39    29    1
     7    29    30   ar
     8    30    31   ar
     9    31    32   ar
    10    32    27    1
    11    27     1    1
    12     1     2   ar
    13     2     3   ar
    14     3     4   ar
    15     4     7    1
    16     7     8    2
    17     7     9   am
    18     9    10    1
    19    10    11    1
    20    11    12    1
    21    12    13    1
    22    13    14    1
    23    14    15    1
    24    15    17    1
    25    17    18   ar
    26    18    19   ar
    27    19    20   ar
    28    20    23    1
    29    23    24    1
    30    23    25    1
    31    23    26    1
    32    20    21   ar
    33    21    22   ar
    34    15    16    1
    35     4     5   ar
    36     5     6   ar
    37    32    33   ar
    38    39    40   ar
    39    40    35   ar
    40    33    29   ar
    41     6     1   ar
    42    13     9    1
    43    22    17   ar
    44    16    10    1
    45    27    28    1
@<TRIPOS>MOLECULE
*****
 40 45 0 0 0
SMALL
GASTEIGER

@<TRIPOS>ATOM
      1 C         141.3638  142.7918  163.5240 C.ar    1  UNL1        0.1336
      2 C         140.0326  143.1702  164.1028 C.ar    1  UNL1        0.0346
      3 C         139.5677  142.5461  165.3851 C.ar    1  UNL1        0.0090
      4 C         140.4338  141.5436  166.0885 C.ar    1  UNL1        0.0728
      5 C         141.7648  141.1652  165.5097 C.ar    1  UNL1        0.1048
      6 N         142.2298  141.7893  164.2275 N.ar    1  UNL1       -0.2289
      7 C         139.9688  140.9195  167.3708 C.2     1  UNL1        0.2505
      8 O         139.2344  139.6119  167.3454 O.2     1  UNL1       -0.2699
      9 N         140.2382  141.6031  168.6785 N.am    1  UNL1       -0.2759
     10 C         140.9567  142.9072  168.8602 C.3     1  UNL1        0.0955
     11 C         140.9990  143.2127  170.3281 C.3     1  UNL1        0.0233
     12 C         140.3065  142.0974  171.0537 C.3     1  UNL1        0.0233
     13 C         139.8363  141.1026  170.0343 C.3     1  UNL1        0.0955
     14 C         139.4880  140.2919  168.8093 C.3     1  UNL1        0.1134
     15 N         139.9530  140.9160  167.5270 N.pl3   1  UNL1       -0.2748
     16 C         140.6874  142.2236  167.5524 C.3     1  UNL1        0.1134
     17 C         139.6835  140.2323  166.2192 C.ar    1  UNL1        0.2203
     18 N         138.4447  140.5637  165.4410 N.ar    1  UNL1       -0.2121
     19 C         138.1754  139.8801  164.1333 C.ar    1  UNL1        0.1072
     20 C         139.1447  138.8652  163.6039 C.ar    1  UNL1        0.1097
     21 C         140.3835  138.5339  164.3821 C.ar    1  UNL1        0.1072
     22 N         140.6528  139.2174  165.6898 N.ar    1  UNL1       -0.2121
     23 C         138.8752  138.1816  162.2962 C.3     1  UNL1        0.4215
     24 F         138.6057  137.4981  160.9884 F       1  UNL1       -0.1657
     25 F         140.0959  137.3316  162.4889 F       1  UNL1       -0.1657
     26 F         137.6545  139.0317  162.1034 F       1  UNL1       -0.1657
     27 N         141.8288  143.4159  162.2417 N.pl3   1  UNL1       -0.2781
     28 H         141.6544  144.3688  162.0664 H       1  UNL1        0.1555
     29 C         143.1086  140.8332  159.6423 C.ar    1  UNL1        0.0969
     30 C         144.2588  141.7951  159.6858 C.ar    1  UNL1        0.0578
     31 S         143.9194  142.8796  160.6648 S.2     1  UNL1       -0.0508
     32 C         142.5594  142.5880  161.2264 C.ar    1  UNL1        0.1646
     33 N         142.0583  141.3233  160.5945 N.ar    1  UNL1       -0.2234
     34 C         142.8850  137.6175  155.4601 C.3     1  UNL1        0.0594
     35 C         142.9208  138.1200  156.8730 C.ar    1  UNL1        0.0883
     36 N         142.8649  137.2749  158.1110 N.ar    1  UNL1       -0.2470
     37 C         142.9285  138.1884  159.2991 C.ar    1  UNL1        0.0670
     38 C         142.9015  137.7663  160.7382 C.3     1  UNL1        0.0527
     39 C         143.0237  139.5981  158.7953 C.ar    1  UNL1        0.0623
     40 S         143.0190  139.5558  157.2959 S.2     1  UNL1       -0.0696
@<TRIPOS>BOND
     1    34    35    1
     2    35    36   ar
     3    36    37   ar
     4    37    38    1
     5    37    39   ar
     6    39    29    1
     7    29    30   ar
     8    30    31   ar
     9    31    32   ar
    10    32    27    1
    11    27     1    1
    12     1     2   ar
    13     2     3   ar
    14     3     4   ar
    15     4     7    1
    16     7     8    2
    17     7     9   am
    18     9    10    1
    19    10    11    1
    20    11    12    1
    21    12    13    1
    22    13    14    1
    23    14    15    1
    24    15    17    1
    25    17    18   ar
    26    18    19   ar
    27    19    20   ar
    28    20    23    1
    29    23    24    1
    30    23    25    1
    31    23    26    1
    32    20    21   ar
    33    21    22   ar
    34    15    16    1
    35     4     5   ar
    36     5     6   ar
    37    32    33   ar
    38    39    40   ar
    39    40    35   ar
    40    33    29   ar
    41     6     1   ar
    42    13     9    1
    43    22    17   ar
    44    16    10    1
    45    27    28    1
@<TRIPOS>MOLECULE
*****
 40 45 0 0 0
SMALL
GASTEIGER

@<TRIPOS>ATOM
      1 C         143.1250  143.0020  164.0427 C.ar    1  UNL1        0.1336
      2 C         143.8252  142.2304  165.1218 C.ar    1  UNL1        0.0346
      3 C         143.0280  141.5503  166.1951 C.ar    1  UNL1        0.0090
      4 C         141.5308  141.6418  166.1893 C.ar    1  UNL1        0.0728
      5 C         140.8308  142.4134  165.1101 C.ar    1  UNL1        0.1048
      6 N         141.6278  143.0935  164.0369 N.ar    1  UNL1       -0.2289
      7 C         140.7337  140.9616  167.2626 C.2     1  UNL1        0.2505
      8 O         140.2950  139.5385  167.0831 O.2     1  UNL1       -0.2699
      9 N         140.3753  141.7046  168.5154 N.am    1  UNL1       -0.2759
     10 C         140.7418  143.1237  168.8343 C.3     1  UNL1        0.0955
     11 C         140.1804  143.4551  170.1852 C.3     1  UNL1        0.0233
     12 C         139.4670  142.2408  170.7012 C.3     1  UNL1        0.0233
     13 C         139.5873  141.1589  169.6692 C.3     1  UNL1        0.0955
     14 C         139.8644  140.2775  168.4753 C.3     1  UNL1        0.1134
     15 N         140.6616  140.9576  167.4020 N.pl3   1  UNL1       -0.2748
     16 C         141.1002  142.3808  167.5815 C.3     1  UNL1        0.1134
     17 C         141.0200  140.2146  166.1492 C.ar    1  UNL1        0.2203
     18 N         142.2702  139.3872  166.0996 N.ar    1  UNL1       -0.2121
     19 C         142.6286  138.6442  164.8469 C.ar    1  UNL1        0.1072
     20 C         141.7369  138.7285  163.6437 C.ar    1  UNL1        0.1097
     21 C         140.4867  139.5559  163.6933 C.ar    1  UNL1        0.1072
     22 N         140.1283  140.2989  164.9460 N.ar    1  UNL1       -0.2121
     23 C         142.0953  137.9855  162.3909 C.3     1  UNL1        0.4215
     24 F         142.4538  137.2424  161.1381 F       1  UNL1       -0.1657
     25 F         143.5382  138.3427  162.5919 F       1  UNL1       -0.1657
     26 F         140.6524  137.6283  162.1899 F       1  UNL1       -0.1657
     27 N         143.9222  143.6822  162.9693 N.pl3   1  UNL1       -0.2781
     28 H         144.7101  144.2218  163.2085 H       1  UNL1        0.1555
     29 C         142.4041  143.8797  159.4027 C.ar    1  UNL1        0.0969
     30 C         143.3921  142.7635  159.2357 C.ar    1  UNL1        0.0578
     31 S         144.0810  142.5536  160.5515 S.2     1  UNL1       -0.0508
     32 C         143.5188  143.5402  161.5316 C.ar    1  UNL1        0.1646
     33 N         142.4824  144.3598  160.8216 N.ar    1  UNL1       -0.2234
     34 C         140.5394  146.7234  155.3631 C.3     1  UNL1        0.0594
     35 C         140.6400  145.7281  156.4808 C.ar    1  UNL1        0.0883
     36 N         139.5625  144.7797  156.9165 N.ar    1  UNL1       -0.2470
     37 C         140.0922  143.9719  158.0640 C.ar    1  UNL1        0.0670
     38 C         139.3478  142.9028  158.8075 C.3     1  UNL1        0.0527
     39 C         141.4970  144.4210  158.3376 C.ar    1  UNL1        0.0623
     40 S         141.8355  145.5064  157.3591 S.2     1  UNL1       -0.0696
@<TRIPOS>BOND
     1    34    35    1
     2    35    36   ar
     3    36    37   ar
     4    37    38    1
     5    37    39   ar
     6    39    29    1
     7    29    30   ar
     8    30    31   ar
     9    31    32   ar
    10    32    27    1
    11    27     1    1
    12     1     2   ar
    13     2     3   ar
    14     3     4   ar
    15     4     7    1
    16     7     8    2
    17     7     9   am
    18     9    10    1
    19    10    11    1
    20    11    12    1
    21    12    13    1
    22    13    14    1
    23    14    15    1
    24    15    17    1
    25    17    18   ar
    26    18    19   ar
    27    19    20   ar
    28    20    23    1
    29    23    24    1
    30    23    25    1
    31    23    26    1
    32    20    21   ar
    33    21    22   ar
    34    15    16    1
    35     4     5   ar
    36     5     6   ar
    37    32    33   ar
    38    39    40   ar
    39    40    35   ar
    40    33    29   ar
    41     6     1   ar
    42    13     9    1
    43    22    17   ar
    44    16    10    1
    45    27    28    1
@<TRIPOS>MOLECULE
*****
 40 45 0 0 0
SMALL
GASTEIGER

@<TRIPOS>ATOM
      1 C         138.3285  140.6103  164.0948 C.ar    1  UNL1        0.1336
      2 C         138.2489  139.3860  164.9579 C.ar    1  UNL1        0.0346
      3 C         139.3004  139.1313  165.9969 C.ar    1  UNL1        0.0090
      4 C         140.4312  140.1009  166.1729 C.ar    1  UNL1        0.0728
      5 C         140.5107  141.3251  165.3099 C.ar    1  UNL1        0.1048
      6 N         139.4594  141.5799  164.2709 N.ar    1  UNL1       -0.2289
      7 C         141.4826  139.8461  167.2120 C.2     1  UNL1        0.2505
      8 O         142.7358  139.1076  166.8456 O.2     1  UNL1       -0.2699
      9 N         141.2809  140.3299  168.6174 N.am    1  UNL1       -0.2759
     10 C         140.0859  141.0782  169.1293 C.3     1  UNL1        0.0955
     11 C         140.3052  141.3611  170.5860 C.3     1  UNL1        0.0233
     12 C         141.6357  140.7876  170.9744 C.3     1  UNL1        0.0233
     13 C         142.2388  140.1503  169.7577 C.3     1  UNL1        0.0955
     14 C         142.5922  139.6012  168.3966 C.3     1  UNL1        0.1134
     15 N         141.5408  139.8559  167.3576 N.pl3   1  UNL1       -0.2748
     16 C         140.2876  140.5944  167.7239 C.3     1  UNL1        0.1134
     17 C         141.7425  139.3721  165.9521 C.ar    1  UNL1        0.2203
     18 N         142.4702  140.2307  164.9605 N.ar    1  UNL1       -0.2121
     19 C         142.6720  139.7469  163.5551 C.ar    1  UNL1        0.1072
     20 C         142.1461  138.4045  163.1413 C.ar    1  UNL1        0.1097
     21 C         141.4184  137.5459  164.1328 C.ar    1  UNL1        0.1072
     22 N         141.2166  138.0297  165.5382 N.ar    1  UNL1       -0.2121
     23 C         142.3479  137.9208  161.7358 C.3     1  UNL1        0.4215
     24 F         142.5496  137.4370  160.3303 F       1  UNL1       -0.1657
     25 F         143.8149  137.7582  162.0024 F       1  UNL1       -0.1657
     26 F         140.8807  138.0834  161.4692 F       1  UNL1       -0.1657
     27 N         137.2771  140.8651  163.0557 N.pl3   1  UNL1       -0.2781
     28 H         136.3330  140.9512  163.3215 H       1  UNL1        0.1555
     29 C         138.3880  141.9111  159.4869 C.ar    1  UNL1        0.0969
     30 C         138.1309  140.4461  159.2927 C.ar    1  UNL1        0.0578
     31 S         137.6834  139.8760  160.6060 S.2     1  UNL1       -0.0508
     32 C         137.6640  140.9886  161.6118 C.ar    1  UNL1        0.1646
     33 N         138.0994  142.2463  160.9202 N.ar    1  UNL1       -0.2234
     34 C         141.1100  145.6661  156.9627 C.3     1  UNL1        0.0594
     35 C         140.1034  144.5981  157.2726 C.ar    1  UNL1        0.0883
     36 N         139.0296  144.1039  156.3491 N.ar    1  UNL1       -0.2470
     37 C         138.2563  143.0372  157.0662 C.ar    1  UNL1        0.0670
     38 C         137.0917  142.2702  156.5136 C.3     1  UNL1        0.0527
     39 C         138.8521  142.8721  158.4328 C.ar    1  UNL1        0.0623
     40 S         139.9937  143.8368  158.5604 S.2     1  UNL1       -0.0696
@<TRIPOS>BOND
     1    34    35    1
     2    35    36   ar
     3    36    37   ar
     4    37    38    1
     5    37    39   ar
     6    39    29    1
     7    29    30   ar
     8    30    31   ar
     9    31    32   ar
    10    32    27    1
    11    27     1    1
    12     1     2   ar
    13     2     3   ar
    14     3     4   ar
    15     4     7    1
    16     7     8    2
    17     7     9   am
    18     9    10    1
    19    10    11    1
    20    11    12    1
    21    12    13    1
    22    13    14    1
    23    14    15    1
    24    15    17    1
    25    17    18   ar
    26    18    19   ar
    27    19    20   ar
    28    20    23    1
    29    23    24    1
    30    23    25    1
    31    23    26    1
    32    20    21   ar
    33    21    22   ar
    34    15    16    1
    35     4     5   ar
    36     5     6   ar
    37    32    33   ar
    38    39    40   ar
    39    40    35   ar
    40    33    29   ar
    41     6     1   ar
    42    13     9    1
    43    22    17   ar
    44    16    10    1
    45    27    28    1
@<TRIPOS>MOLECULE
*****
 40 45 0 0 0
SMALL
GASTEIGER

@<TRIPOS>ATOM
      1 C         141.2182  144.0929  163.6214 C.ar    1  UNL1        0.1336
      2 C         139.8793  144.2515  164.2789 C.ar    1  UNL1        0.0346
      3 C         139.4722  143.3232  165.3846 C.ar    1  UNL1        0.0090
      4 C         140.4038  142.2364  165.8326 C.ar    1  UNL1        0.0728
      5 C         141.7426  142.0778  165.1750 C.ar    1  UNL1        0.1048
      6 N         142.1498  143.0061  164.0695 N.ar    1  UNL1       -0.2289
      7 C         139.9966  141.3081  166.9383 C.2     1  UNL1        0.2505
      8 O         139.2691  140.0357  166.6195 O.2     1  UNL1       -0.2699
      9 N         140.3170  141.6522  168.3627 N.am    1  UNL1       -0.2759
     10 C         141.0353  142.8824  168.8324 C.3     1  UNL1        0.0955
     11 C         141.1376  142.8170  170.3275 C.3     1  UNL1        0.0233
     12 C         140.4824  141.5465  170.7818 C.3     1  UNL1        0.0233
     13 C         139.9752  140.8265  169.5675 C.3     1  UNL1        0.0955
     14 C         139.5802  140.3376  168.1949 C.3     1  UNL1        0.1134
     15 N         139.9874  141.2659  167.0893 N.pl3   1  UNL1       -0.2748
     16 C         140.7149  142.5383  167.4080 C.3     1  UNL1        0.1134
     17 C         139.6670  140.9217  165.6648 C.ar    1  UNL1        0.2203
     18 N         138.3581  141.3455  165.0670 N.ar    1  UNL1       -0.2121
     19 C         138.0378  141.0013  163.6427 C.ar    1  UNL1        0.1072
     20 C         139.0262  140.2334  162.8161 C.ar    1  UNL1        0.1097
     21 C         140.3351  139.8097  163.4138 C.ar    1  UNL1        0.1072
     22 N         140.6554  140.1538  164.8382 N.ar    1  UNL1       -0.2121
     23 C         138.7058  139.8893  161.3917 C.3     1  UNL1        0.4215
     24 F         138.3854  139.5451  159.9672 F       1  UNL1       -0.1657
     25 F         137.5100  140.7933  161.4422 F       1  UNL1       -0.1657
     26 F         139.9017  138.9853  161.3411 F       1  UNL1       -0.1657
     27 N         141.6254  145.0212  162.5157 N.pl3   1  UNL1       -0.2781
     28 H         141.7262  145.9843  162.6936 H       1  UNL1        0.1555
     29 C         142.7662  143.1670  159.3024 C.ar    1  UNL1        0.0969
     30 C         141.7722  144.1387  158.7389 C.ar    1  UNL1        0.0578
     31 S         141.2238  144.9516  159.8740 S.2     1  UNL1       -0.0508
     32 C         141.8790  144.4823  161.1391 C.ar    1  UNL1        0.1646
     33 N         142.8322  143.3793  160.7859 N.ar    1  UNL1       -0.2234
     34 C         146.0725  140.9984  155.8028 C.3     1  UNL1        0.0594
     35 C         145.0755  141.1630  156.9113 C.ar    1  UNL1        0.0883
     36 N         144.4658  140.0567  157.7203 N.ar    1  UNL1       -0.2470
     37 C         143.5265  140.6727  158.7145 C.ar    1  UNL1        0.0670
     38 C         142.7028  139.9317  159.7256 C.3     1  UNL1        0.0527
     39 C         143.5557  142.1597  158.5199 C.ar    1  UNL1        0.0623
     40 S         144.5130  142.4627  157.4056 S.2     1  UNL1       -0.0696
@<TRIPOS>BOND
     1    34    35    1
     2    35    36   ar
     3    36    37   ar
     4    37    38    1
     5    37    39   ar
     6    39    29    1
     7    29    30   ar
     8    30    31   ar
     9    31    32   ar
    10    32    27    1
    11    27     1    1
    12     1     2   ar
    13     2     3   ar
    14     3     4   ar
    15     4     7    1
    16     7     8    2
    17     7     9   am
    18     9    10    1
    19    10    11    1
    20    11    12    1
    21    12    13    1
    22    13    14    1
    23    14    15    1
    24    15    17    1
    25    17    18   ar
    26    18    19   ar
    27    19    20   ar
    28    20    23    1
    29    23    24    1
    30    23    25    1
    31    23    26    1
    32    20    21   ar
    33    21    22   ar
    34    15    16    1
    35     4     5   ar
    36     5     6   ar
    37    32    33   ar
    38    39    40   ar
    39    40    35   ar
    40    33    29   ar
    41     6     1   ar
    42    13     9    1
    43    22    17   ar
    44    16    10    1
    45    27    28    1
