@<TRIPOS>MOLECULE
*****
 35 39 0 0 0
SMALL
GASTEIGER

@<TRIPOS>ATOM
      1 N         143.8590  137.6062  161.5666 N.pl3   1  UNL1       -0.2802
      2 H         144.3352  136.7474  161.6368 H       1  UNL1        0.1552
      3 C         143.5443  138.1811  160.2174 C.ar    1  UNL1        0.2208
      4 N         143.9725  139.5783  159.8790 N.ar    1  UNL1       -0.2111
      5 C         143.6578  140.1532  158.5298 C.ar    1  UNL1        0.1147
      6 C         142.9149  139.3309  157.5189 C.ar    1  UNL1        0.0960
      7 CL        142.6002  139.9058  156.1697 Cl      1  UNL1       -0.0790
      8 C         142.4866  137.9336  157.8573 C.ar    1  UNL1        0.1138
      9 N         142.8014  137.3588  159.2065 N.ar    1  UNL1       -0.2111
     10 C         141.7437  137.1114  156.8464 C.ar    1  UNL1        0.1031
     11 C         140.3942  137.4273  156.2729 C.ar    1  UNL1        0.1196
     12 N         140.0364  136.3400  155.3036 N.ar    1  UNL1       -0.2248
     13 C         141.1647  135.3520  155.2780 C.ar    1  UNL1        0.1479
     14 C         141.3677  134.0798  154.5096 C.ar    1  UNL1        0.0374
     15 C         142.6258  133.2844  154.6948 C.ar    1  UNL1        0.0046
     16 C         143.6810  133.7612  155.6483 C.ar    1  UNL1        0.0191
     17 C         143.4781  135.0333  156.4167 C.ar    1  UNL1        0.0815
     18 N         142.2200  135.8287  156.2315 N.ar    1  UNL1       -0.2874
     19 C         142.0616  138.1710  163.3555 C.ar    1  UNL1        0.1533
     20 C         141.6508  138.9046  164.5978 C.ar    1  UNL1        0.0527
     21 C         142.6266  139.8068  165.2934 C.ar    1  UNL1        0.0511
     22 C         144.0132  139.9755  164.7467 C.ar    1  UNL1        0.0160
     23 C         144.4240  139.2419  163.5044 C.ar    1  UNL1        0.0190
     24 C         143.4482  138.3397  162.8088 C.ar    1  UNL1        0.0850
     25 N         142.2158  140.5403  166.5356 N.pl3   1  UNL1       -0.3040
     26 C         141.4720  141.8385  166.4286 C.3     1  UNL1        0.1123
     27 C         141.0611  142.5721  167.6709 C.3     1  UNL1        0.1148
     28 N         141.3940  142.0074  169.0200 N.am    1  UNL1       -0.2760
     29 C         140.9832  142.7409  170.2623 C.2     1  UNL1        0.2262
     30 C         140.2394  144.0392  170.1553 C.3     1  UNL1        0.0948
     31 O         141.3160  142.1762  171.6115 O.2     1  UNL1       -0.2749
     32 C         142.1378  140.7092  169.1270 C.3     1  UNL1        0.1148
     33 C         142.5486  139.9756  167.8848 C.3     1  UNL1        0.1123
     34 C         139.6382  137.6529  162.5751 C.3     1  UNL1        0.2525
     35 O         141.0857  137.2688  162.6600 O.3     1  UNL1       -0.4701
@<TRIPOS>BOND
     1    34    35    1
     2    35    19    1
     3    19    20   ar
     4    20    21   ar
     5    21    25    1
     6    25    26    1
     7    26    27    1
     8    27    28    1
     9    28    29   am
    10    29    30    1
    11    29    31    2
    12    28    32    1
    13    32    33    1
    14    21    22   ar
    15    22    23   ar
    16    23    24   ar
    17    24     1    1
    18     1     3    1
    19     3     4   ar
    20     4     5   ar
    21     5     6   ar
    22     6     7    1
    23     6     8   ar
    24     8    10    1
    25    10    11   ar
    26    11    12   ar
    27    12    13   ar
    28    13    14   ar
    29    14    15   ar
    30    15    16   ar
    31    16    17   ar
    32    17    18   ar
    33     8     9   ar
    34    24    19   ar
    35     9     3   ar
    36    33    25    1
    37    18    10   ar
    38    18    13   ar
    39     1     2    1
@<TRIPOS>MOLECULE
*****
 35 39 0 0 0
SMALL
GASTEIGER

@<TRIPOS>ATOM
      1 N         137.3836  139.0347  161.5642 N.pl3   1  UNL1       -0.2802
      2 H         136.5105  138.5799  161.5757 H       1  UNL1        0.1552
      3 C         138.0709  139.3056  160.2588 C.ar    1  UNL1        0.2208
      4 N         139.3745  138.6337  159.9439 N.ar    1  UNL1       -0.2111
      5 C         140.0619  138.9046  158.6385 C.ar    1  UNL1        0.1147
      6 C         139.4456  139.8475  157.6479 C.ar    1  UNL1        0.0960
      7 CL        140.1329  140.1184  156.3425 Cl      1  UNL1       -0.0790
      8 C         138.1419  140.5194  157.9628 C.ar    1  UNL1        0.1138
      9 N         137.4547  140.2485  159.2682 N.ar    1  UNL1       -0.2111
     10 C         137.5257  141.4623  156.9722 C.ar    1  UNL1        0.1031
     11 C         136.2683  141.2218  156.1904 C.ar    1  UNL1        0.1196
     12 N         136.0242  142.4220  155.3245 N.ar    1  UNL1       -0.2248
     13 C         137.1306  143.4044  155.5712 C.ar    1  UNL1        0.1479
     14 C         137.4130  144.7623  155.0001 C.ar    1  UNL1        0.0374
     15 C         138.6233  145.5271  155.4474 C.ar    1  UNL1        0.0046
     16 C         139.5513  144.9340  156.4657 C.ar    1  UNL1        0.0191
     17 C         139.2689  143.5760  157.0368 C.ar    1  UNL1        0.0815
     18 N         138.0586  142.8112  156.5895 N.ar    1  UNL1       -0.2874
     19 C         137.9796  140.8940  163.2781 C.ar    1  UNL1        0.1533
     20 C         138.6225  141.3159  164.5661 C.ar    1  UNL1        0.0527
     21 C         139.3122  140.3003  165.4280 C.ar    1  UNL1        0.0511
     22 C         139.3591  138.8628  165.0019 C.ar    1  UNL1        0.0160
     23 C         138.7162  138.4410  163.7140 C.ar    1  UNL1        0.0190
     24 C         138.0264  139.4566  162.8521 C.ar    1  UNL1        0.0850
     25 N         139.9551  140.7222  166.7158 N.pl3   1  UNL1       -0.3040
     26 C         140.9682  141.8283  166.7212 C.3     1  UNL1        0.1123
     27 C         141.6111  142.2503  168.0091 C.3     1  UNL1        0.1148
     28 N         141.2409  141.5661  169.2915 N.am    1  UNL1       -0.2760
     29 C         141.8838  141.9880  170.5795 C.2     1  UNL1        0.2262
     30 C         142.8969  143.0942  170.5849 C.3     1  UNL1        0.0948
     31 O         141.5136  141.3038  171.8620 O.2     1  UNL1       -0.2749
     32 C         140.2278  140.4600  169.2862 C.3     1  UNL1        0.1148
     33 C         139.5849  140.0380  167.9983 C.3     1  UNL1        0.1123
     34 C         137.8084  143.3157  162.3529 C.3     1  UNL1        0.2525
     35 O         137.2899  141.9097  162.4162 O.3     1  UNL1       -0.4701
@<TRIPOS>BOND
     1    34    35    1
     2    35    19    1
     3    19    20   ar
     4    20    21   ar
     5    21    25    1
     6    25    26    1
     7    26    27    1
     8    27    28    1
     9    28    29   am
    10    29    30    1
    11    29    31    2
    12    28    32    1
    13    32    33    1
    14    21    22   ar
    15    22    23   ar
    16    23    24   ar
    17    24     1    1
    18     1     3    1
    19     3     4   ar
    20     4     5   ar
    21     5     6   ar
    22     6     7    1
    23     6     8   ar
    24     8    10    1
    25    10    11   ar
    26    11    12   ar
    27    12    13   ar
    28    13    14   ar
    29    14    15   ar
    30    15    16   ar
    31    16    17   ar
    32    17    18   ar
    33     8     9   ar
    34    24    19   ar
    35     9     3   ar
    36    33    25    1
    37    18    10   ar
    38    18    13   ar
    39     1     2    1
@<TRIPOS>MOLECULE
*****
 35 39 0 0 0
SMALL
GASTEIGER

@<TRIPOS>ATOM
      1 N         140.6645  145.8709  161.3724 N.pl3   1  UNL1       -0.2802
      2 H         140.5645  146.8488  161.4266 H       1  UNL1        0.1552
      3 C         140.7087  145.1946  160.0343 C.ar    1  UNL1        0.2208
      4 N         141.7526  145.5855  159.0305 N.ar    1  UNL1       -0.2111
      5 C         141.7968  144.9091  157.6924 C.ar    1  UNL1        0.1147
      6 C         140.7971  143.8419  157.3580 C.ar    1  UNL1        0.0960
      7 CL        140.8413  143.1656  156.0199 Cl      1  UNL1       -0.0790
      8 C         139.7532  143.4510  158.3619 C.ar    1  UNL1        0.1138
      9 N         139.7091  144.1274  159.6999 N.ar    1  UNL1       -0.2111
     10 C         138.7536  142.3838  158.0275 C.ar    1  UNL1        0.1031
     11 C         138.5919  141.0732  158.7388 C.ar    1  UNL1        0.1196
     12 N         137.4785  140.3193  158.0740 N.ar    1  UNL1       -0.2248
     13 C         136.9521  141.1640  156.9518 C.ar    1  UNL1        0.1479
     14 C         135.8570  140.9361  155.9524 C.ar    1  UNL1        0.0374
     15 C         135.5500  141.9843  154.9243 C.ar    1  UNL1        0.0046
     16 C         136.3380  143.2602  154.8955 C.ar    1  UNL1        0.0191
     17 C         137.4331  143.4881  155.8949 C.ar    1  UNL1        0.0815
     18 N         137.7401  142.4400  156.9230 N.ar    1  UNL1       -0.2874
     19 C         142.0688  144.3892  162.9794 C.ar    1  UNL1        0.1533
     20 C         142.1769  143.5756  164.2351 C.ar    1  UNL1        0.0527
     21 C         140.9888  143.4302  165.1391 C.ar    1  UNL1        0.0511
     22 C         139.6927  144.0984  164.7877 C.ar    1  UNL1        0.0160
     23 C         139.5846  144.9119  163.5321 C.ar    1  UNL1        0.0190
     24 C         140.7727  145.0574  162.6279 C.ar    1  UNL1        0.0850
     25 N         141.0970  142.6167  166.3947 N.pl3   1  UNL1       -0.3040
     26 C         142.0440  141.4550  166.4563 C.3     1  UNL1        0.1123
     27 C         142.1522  140.6414  167.7119 C.3     1  UNL1        0.1148
     28 N         141.3134  140.9895  168.9057 N.am    1  UNL1       -0.2760
     29 C         141.4216  140.1759  170.1613 C.2     1  UNL1        0.2262
     30 C         142.3685  139.0142  170.2229 C.3     1  UNL1        0.0948
     31 O         140.5828  140.5239  171.3552 O.2     1  UNL1       -0.2749
     32 C         140.3664  142.1511  168.8440 C.3     1  UNL1        0.1148
     33 C         140.2582  142.9647  167.5885 C.3     1  UNL1        0.1123
     34 C         144.4277  143.6082  162.2206 C.3     1  UNL1        0.2525
     35 O         143.2569  144.5346  162.0753 O.3     1  UNL1       -0.4701
@<TRIPOS>BOND
     1    34    35    1
     2    35    19    1
     3    19    20   ar
     4    20    21   ar
     5    21    25    1
     6    25    26    1
     7    26    27    1
     8    27    28    1
     9    28    29   am
    10    29    30    1
    11    29    31    2
    12    28    32    1
    13    32    33    1
    14    21    22   ar
    15    22    23   ar
    16    23    24   ar
    17    24     1    1
    18     1     3    1
    19     3     4   ar
    20     4     5   ar
    21     5     6   ar
    22     6     7    1
    23     6     8   ar
    24     8    10    1
    25    10    11   ar
    26    11    12   ar
    27    12    13   ar
    28    13    14   ar
    29    14    15   ar
    30    15    16   ar
    31    16    17   ar
    32    17    18   ar
    33     8     9   ar
    34    24    19   ar
    35     9     3   ar
    36    33    25    1
    37    18    10   ar
    38    18    13   ar
    39     1     2    1
@<TRIPOS>MOLECULE
*****
 35 39 0 0 0
SMALL
GASTEIGER

@<TRIPOS>ATOM
      1 N         137.4483  138.8224  161.5071 N.pl3   1  UNL1       -0.2802
      2 H         136.6799  138.2070  161.5203 H       1  UNL1        0.1552
      3 C         137.9954  139.3110  160.1987 C.ar    1  UNL1        0.2208
      4 N         137.1835  140.2411  159.3468 N.ar    1  UNL1       -0.2111
      5 C         137.7306  140.7298  158.0384 C.ar    1  UNL1        0.1147
      6 C         139.0896  140.2884  157.5820 C.ar    1  UNL1        0.0960
      7 CL        139.6367  140.7770  156.2736 Cl      1  UNL1       -0.0790
      8 C         139.9015  139.3582  158.4340 C.ar    1  UNL1        0.1138
      9 N         139.3544  138.8696  159.7423 N.ar    1  UNL1       -0.2111
     10 C         141.2605  138.9168  157.9775 C.ar    1  UNL1        0.1031
     11 C         142.5699  139.5132  158.4018 C.ar    1  UNL1        0.1196
     12 N         143.6673  138.7665  157.7031 N.ar    1  UNL1       -0.2248
     13 C         143.0362  137.7086  156.8471 C.ar    1  UNL1        0.1479
     14 C         143.6238  136.6728  155.9352 C.ar    1  UNL1        0.0374
     15 C         142.7240  135.7299  155.1929 C.ar    1  UNL1        0.0046
     16 C         141.2365  135.8228  155.3625 C.ar    1  UNL1        0.0191
     17 C         140.6489  136.8587  156.2744 C.ar    1  UNL1        0.0815
     18 N         141.5487  137.8016  157.0167 N.ar    1  UNL1       -0.2874
     19 C         137.9464  140.7011  163.2312 C.ar    1  UNL1        0.1533
     20 C         138.5700  141.1499  164.5196 C.ar    1  UNL1        0.0527
     21 C         139.3190  140.1689  165.3721 C.ar    1  UNL1        0.0511
     22 C         139.4444  138.7391  164.9362 C.ar    1  UNL1        0.0160
     23 C         138.8208  138.2903  163.6479 C.ar    1  UNL1        0.0190
     24 C         138.0718  139.2713  162.7954 C.ar    1  UNL1        0.0850
     25 N         139.9425  140.6178  166.6603 N.pl3   1  UNL1       -0.3040
     26 C         140.9753  141.7055  166.6546 C.3     1  UNL1        0.1123
     27 C         141.5990  142.1545  167.9429 C.3     1  UNL1        0.1148
     28 N         141.1896  141.5157  169.2368 N.am    1  UNL1       -0.2760
     29 C         141.8132  141.9646  170.5252 C.2     1  UNL1        0.2262
     30 C         142.8460  143.0523  170.5194 C.3     1  UNL1        0.0948
     31 O         141.4039  141.3258  171.8192 O.2     1  UNL1       -0.2749
     32 C         140.1567  140.4280  169.2426 C.3     1  UNL1        0.1148
     33 C         139.5332  139.9790  167.9543 C.3     1  UNL1        0.1123
     34 C         137.9221  142.8337  161.7475 C.3     1  UNL1        0.2525
     35 O         137.1974  141.6820  162.3788 O.3     1  UNL1       -0.4701
@<TRIPOS>BOND
     1    34    35    1
     2    35    19    1
     3    19    20   ar
     4    20    21   ar
     5    21    25    1
     6    25    26    1
     7    26    27    1
     8    27    28    1
     9    28    29   am
    10    29    30    1
    11    29    31    2
    12    28    32    1
    13    32    33    1
    14    21    22   ar
    15    22    23   ar
    16    23    24   ar
    17    24     1    1
    18     1     3    1
    19     3     4   ar
    20     4     5   ar
    21     5     6   ar
    22     6     7    1
    23     6     8   ar
    24     8    10    1
    25    10    11   ar
    26    11    12   ar
    27    12    13   ar
    28    13    14   ar
    29    14    15   ar
    30    15    16   ar
    31    16    17   ar
    32    17    18   ar
    33     8     9   ar
    34    24    19   ar
    35     9     3   ar
    36    33    25    1
    37    18    10   ar
    38    18    13   ar
    39     1     2    1
@<TRIPOS>MOLECULE
*****
 35 39 0 0 0
SMALL
GASTEIGER

@<TRIPOS>ATOM
      1 N         137.3538  139.0536  161.4787 N.pl3   1  UNL1       -0.2802
      2 H         136.4697  138.6204  161.4817 H       1  UNL1        0.1552
      3 C         138.0617  139.3044  160.1803 C.ar    1  UNL1        0.2208
      4 N         139.3778  138.6403  159.9032 N.ar    1  UNL1       -0.2111
      5 C         140.0857  138.8911  158.6047 C.ar    1  UNL1        0.1147
      6 C         139.4774  139.8059  157.5834 C.ar    1  UNL1        0.0960
      7 CL        140.1853  140.0567  156.2849 Cl      1  UNL1       -0.0790
      8 C         138.1612  140.4700  157.8605 C.ar    1  UNL1        0.1138
      9 N         137.4534  140.2192  159.1589 N.ar    1  UNL1       -0.2111
     10 C         137.5530  141.3849  156.8392 C.ar    1  UNL1        0.1031
     11 C         137.5204  142.8830  156.9057 C.ar    1  UNL1        0.1196
     12 N         136.8178  143.3862  155.6796 N.ar    1  UNL1       -0.2248
     13 C         136.4162  142.1990  154.8554 C.ar    1  UNL1        0.1479
     14 C         135.6955  142.0845  153.5449 C.ar    1  UNL1        0.0374
     15 C         135.4291  140.7331  152.9511 C.ar    1  UNL1        0.0046
     16 C         135.8835  139.4962  153.6678 C.ar    1  UNL1        0.0191
     17 C         136.6042  139.6107  154.9783 C.ar    1  UNL1        0.0815
     18 N         136.8706  140.9621  155.5721 N.ar    1  UNL1       -0.2874
     19 C         137.9221  140.8911  163.2253 C.ar    1  UNL1        0.1533
     20 C         138.5612  141.3002  164.5193 C.ar    1  UNL1        0.0527
     21 C         139.2709  140.2810  165.3605 C.ar    1  UNL1        0.0511
     22 C         139.3416  138.8527  164.9078 C.ar    1  UNL1        0.0160
     23 C         138.7025  138.4436  163.6139 C.ar    1  UNL1        0.0190
     24 C         137.9928  139.4628  162.7726 C.ar    1  UNL1        0.0850
     25 N         139.9100  140.6902  166.6544 N.pl3   1  UNL1       -0.3040
     26 C         140.8856  141.8293  166.6817 C.3     1  UNL1        0.1123
     27 C         141.5247  142.2386  167.9756 C.3     1  UNL1        0.1148
     28 N         141.1881  141.5087  169.2421 N.am    1  UNL1       -0.2760
     29 C         141.8272  141.9179  170.5360 C.2     1  UNL1        0.2262
     30 C         142.8028  143.0570  170.5634 C.3     1  UNL1        0.0948
     31 O         141.4906  141.1881  171.8026 O.2     1  UNL1       -0.2749
     32 C         140.2125  140.3697  169.2147 C.3     1  UNL1        0.1148
     33 C         139.5734  139.9604  167.9209 C.3     1  UNL1        0.1123
     34 C         138.0020  142.8877  161.5648 C.3     1  UNL1        0.2525
     35 O         137.2124  141.9103  162.3841 O.3     1  UNL1       -0.4701
@<TRIPOS>BOND
     1    34    35    1
     2    35    19    1
     3    19    20   ar
     4    20    21   ar
     5    21    25    1
     6    25    26    1
     7    26    27    1
     8    27    28    1
     9    28    29   am
    10    29    30    1
    11    29    31    2
    12    28    32    1
    13    32    33    1
    14    21    22   ar
    15    22    23   ar
    16    23    24   ar
    17    24     1    1
    18     1     3    1
    19     3     4   ar
    20     4     5   ar
    21     5     6   ar
    22     6     7    1
    23     6     8   ar
    24     8    10    1
    25    10    11   ar
    26    11    12   ar
    27    12    13   ar
    28    13    14   ar
    29    14    15   ar
    30    15    16   ar
    31    16    17   ar
    32    17    18   ar
    33     8     9   ar
    34    24    19   ar
    35     9     3   ar
    36    33    25    1
    37    18    10   ar
    38    18    13   ar
    39     1     2    1
@<TRIPOS>MOLECULE
*****
 35 39 0 0 0
SMALL
GASTEIGER

@<TRIPOS>ATOM
      1 N         142.8505  137.4386  161.2576 N.pl3   1  UNL1       -0.2802
      2 H         143.3540  136.5942  161.2046 H       1  UNL1        0.1552
      3 C         142.3693  138.1049  160.0029 C.ar    1  UNL1        0.2208
      4 N         140.9309  138.5100  159.8731 N.ar    1  UNL1       -0.2111
      5 C         140.4496  139.1763  158.6184 C.ar    1  UNL1        0.1147
      6 C         141.4067  139.4374  157.4933 C.ar    1  UNL1        0.0960
      7 CL        140.9254  140.1036  156.2386 Cl      1  UNL1       -0.0790
      8 C         142.8452  139.0322  157.6231 C.ar    1  UNL1        0.1138
      9 N         143.3264  138.3660  158.8778 N.ar    1  UNL1       -0.2111
     10 C         143.8023  139.2933  156.4980 C.ar    1  UNL1        0.1031
     11 C         143.9090  138.5004  155.2292 C.ar    1  UNL1        0.1196
     12 N         144.9934  139.1103  154.3913 N.ar    1  UNL1       -0.2248
     13 C         145.5569  140.2801  155.1422 C.ar    1  UNL1        0.1479
     14 C         146.6452  141.2570  154.8086 C.ar    1  UNL1        0.0374
     15 C         146.9974  142.3470  155.7771 C.ar    1  UNL1        0.0046
     16 C         146.2612  142.4601  157.0791 C.ar    1  UNL1        0.0191
     17 C         145.1729  141.4833  157.4127 C.ar    1  UNL1        0.0815
     18 N         144.8208  140.3933  156.4443 N.ar    1  UNL1       -0.2874
     19 C         143.3672  139.2370  163.0601 C.ar    1  UNL1        0.1533
     20 C         143.0814  139.8572  164.3957 C.ar    1  UNL1        0.0527
     21 C         141.9933  139.2991  165.2644 C.ar    1  UNL1        0.0511
     22 C         141.1909  138.1209  164.7974 C.ar    1  UNL1        0.0160
     23 C         141.4767  137.5008  163.4619 C.ar    1  UNL1        0.0190
     24 C         142.5648  138.0588  162.5932 C.ar    1  UNL1        0.0850
     25 N         141.7076  139.9193  166.5999 N.pl3   1  UNL1       -0.3040
     26 C         140.6322  140.9570  166.7302 C.3     1  UNL1        0.1123
     27 C         140.3465  141.5773  168.0658 C.3     1  UNL1        0.1148
     28 N         141.1360  141.1598  169.2709 N.am    1  UNL1       -0.2760
     29 C         140.8503  141.7800  170.6065 C.2     1  UNL1        0.2262
     30 C         139.7750  142.8177  170.7369 C.3     1  UNL1        0.0948
     31 O         141.6398  141.3626  171.8117 O.2     1  UNL1       -0.2749
     32 C         142.2113  140.1222  169.1405 C.3     1  UNL1        0.1148
     33 C         142.4971  139.5019  167.8050 C.3     1  UNL1        0.1123
     34 C         144.2137  141.0433  161.3955 C.3     1  UNL1        0.2525
     35 O         144.4553  139.7951  162.1914 O.3     1  UNL1       -0.4701
@<TRIPOS>BOND
     1    34    35    1
     2    35    19    1
     3    19    20   ar
     4    20    21   ar
     5    21    25    1
     6    25    26    1
     7    26    27    1
     8    27    28    1
     9    28    29   am
    10    29    30    1
    11    29    31    2
    12    28    32    1
    13    32    33    1
    14    21    22   ar
    15    22    23   ar
    16    23    24   ar
    17    24     1    1
    18     1     3    1
    19     3     4   ar
    20     4     5   ar
    21     5     6   ar
    22     6     7    1
    23     6     8   ar
    24     8    10    1
    25    10    11   ar
    26    11    12   ar
    27    12    13   ar
    28    13    14   ar
    29    14    15   ar
    30    15    16   ar
    31    16    17   ar
    32    17    18   ar
    33     8     9   ar
    34    24    19   ar
    35     9     3   ar
    36    33    25    1
    37    18    10   ar
    38    18    13   ar
    39     1     2    1
@<TRIPOS>MOLECULE
*****
 35 39 0 0 0
SMALL
GASTEIGER

@<TRIPOS>ATOM
      1 N         137.4291  139.1946  161.0471 N.pl3   1  UNL1       -0.2802
      2 H         136.6843  138.5672  160.9026 H       1  UNL1        0.1552
      3 C         137.9665  139.9976  159.8998 C.ar    1  UNL1        0.2208
      4 N         137.1709  140.1230  158.6344 N.ar    1  UNL1       -0.2111
      5 C         137.7082  140.9260  157.4871 C.ar    1  UNL1        0.1147
      6 C         139.0412  141.6038  157.6052 C.ar    1  UNL1        0.0960
      7 CL        139.5785  142.4068  156.4579 Cl      1  UNL1       -0.0790
      8 C         139.8368  141.4784  158.8707 C.ar    1  UNL1        0.1138
      9 N         139.2994  140.6754  160.0179 N.ar    1  UNL1       -0.2111
     10 C         141.1697  142.1562  158.9888 C.ar    1  UNL1        0.1031
     11 C         141.4714  143.3699  159.8170 C.ar    1  UNL1        0.1196
     12 N         142.9231  143.7029  159.6395 N.ar    1  UNL1       -0.2248
     13 C         143.5187  142.6951  158.7016 C.ar    1  UNL1        0.1479
     14 C         144.9077  142.5244  158.1618 C.ar    1  UNL1        0.0374
     15 C         145.2130  141.3977  157.2199 C.ar    1  UNL1        0.0046
     16 C         144.1294  140.4417  156.8177 C.ar    1  UNL1        0.0191
     17 C         142.7403  140.6124  157.3575 C.ar    1  UNL1        0.0815
     18 N         142.4350  141.7391  158.2994 N.ar    1  UNL1       -0.2874
     19 C         137.8699  140.6387  163.1614 C.ar    1  UNL1        0.1533
     20 C         138.4674  140.7914  164.5288 C.ar    1  UNL1        0.0527
     21 C         139.2214  139.6528  165.1493 C.ar    1  UNL1        0.0511
     22 C         139.3780  138.3614  164.4024 C.ar    1  UNL1        0.0160
     23 C         138.7805  138.2087  163.0350 C.ar    1  UNL1        0.0190
     24 C         138.0265  139.3473  162.4144 C.ar    1  UNL1        0.0850
     25 N         139.8188  139.8055  166.5166 N.pl3   1  UNL1       -0.3040
     26 C         141.3028  139.6927  166.7035 C.3     1  UNL1        0.1123
     27 C         141.9003  139.8455  168.0710 C.3     1  UNL1        0.1148
     28 N         141.0138  140.1111  169.2513 N.am    1  UNL1       -0.2760
     29 C         141.6112  140.2639  170.6188 C.2     1  UNL1        0.2262
     30 C         143.0952  140.1511  170.8057 C.3     1  UNL1        0.0948
     31 O         140.7246  140.5295  171.7992 O.2     1  UNL1       -0.2749
     32 C         139.5297  140.2239  169.0644 C.3     1  UNL1        0.1148
     33 C         138.9322  140.0712  167.6971 C.3     1  UNL1        0.1123
     34 C         137.7288  143.1456  162.4940 C.3     1  UNL1        0.2525
     35 O         137.1159  141.7773  162.5409 O.3     1  UNL1       -0.4701
@<TRIPOS>BOND
     1    34    35    1
     2    35    19    1
     3    19    20   ar
     4    20    21   ar
     5    21    25    1
     6    25    26    1
     7    26    27    1
     8    27    28    1
     9    28    29   am
    10    29    30    1
    11    29    31    2
    12    28    32    1
    13    32    33    1
    14    21    22   ar
    15    22    23   ar
    16    23    24   ar
    17    24     1    1
    18     1     3    1
    19     3     4   ar
    20     4     5   ar
    21     5     6   ar
    22     6     7    1
    23     6     8   ar
    24     8    10    1
    25    10    11   ar
    26    11    12   ar
    27    12    13   ar
    28    13    14   ar
    29    14    15   ar
    30    15    16   ar
    31    16    17   ar
    32    17    18   ar
    33     8     9   ar
    34    24    19   ar
    35     9     3   ar
    36    33    25    1
    37    18    10   ar
    38    18    13   ar
    39     1     2    1
@<TRIPOS>MOLECULE
*****
 35 39 0 0 0
SMALL
GASTEIGER

@<TRIPOS>ATOM
      1 N         143.4404  137.4988  161.3635 N.pl3   1  UNL1       -0.2802
      2 H         143.7704  136.5724  161.4104 H       1  UNL1        0.1552
      3 C         143.2643  138.1655  160.0314 C.ar    1  UNL1        0.2208
      4 N         144.0110  139.4287  159.7205 N.ar    1  UNL1       -0.2111
      5 C         143.8348  140.0955  158.3884 C.ar    1  UNL1        0.1147
      6 C         142.9120  139.4991  157.3673 C.ar    1  UNL1        0.0960
      7 CL        142.7358  140.1658  156.0353 Cl      1  UNL1       -0.0790
      8 C         142.1652  138.2358  157.6783 C.ar    1  UNL1        0.1138
      9 N         142.3414  137.5691  159.0103 N.ar    1  UNL1       -0.2111
     10 C         141.2424  137.6393  156.6572 C.ar    1  UNL1        0.1031
     11 C         141.4106  136.3075  155.9880 C.ar    1  UNL1        0.1196
     12 N         140.2615  136.1151  155.0433 N.ar    1  UNL1       -0.2248
     13 C         139.3831  137.3280  155.1287 C.ar    1  UNL1        0.1479
     14 C         138.1096  137.6964  154.4270 C.ar    1  UNL1        0.0374
     15 C         137.4423  139.0068  154.7228 C.ar    1  UNL1        0.0046
     16 C         138.0486  139.9488  155.7203 C.ar    1  UNL1        0.0191
     17 C         139.3221  139.5805  156.4220 C.ar    1  UNL1        0.0815
     18 N         139.9893  138.2701  156.1262 N.ar    1  UNL1       -0.2874
     19 C         141.7434  138.1366  163.2244 C.ar    1  UNL1        0.1533
     20 C         141.4168  138.8813  164.4850 C.ar    1  UNL1        0.0527
     21 C         142.4607  139.7326  165.1451 C.ar    1  UNL1        0.0511
     22 C         143.8311  139.8392  164.5446 C.ar    1  UNL1        0.0160
     23 C         144.1576  139.0946  163.2841 C.ar    1  UNL1        0.0190
     24 C         143.1138  138.2433  162.6240 C.ar    1  UNL1        0.0850
     25 N         142.1341  140.4771  166.4056 N.pl3   1  UNL1       -0.3040
     26 C         141.3378  141.7467  166.3417 C.3     1  UNL1        0.1123
     27 C         141.0111  142.4914  167.6023 C.3     1  UNL1        0.1148
     28 N         141.4807  141.9664  168.9265 N.am    1  UNL1       -0.2760
     29 C         141.1541  142.7110  170.1871 C.2     1  UNL1        0.2262
     30 C         140.3578  143.9806  170.1232 C.3     1  UNL1        0.0948
     31 O         141.6237  142.1861  171.5114 O.2     1  UNL1       -0.2749
     32 C         142.2770  140.6968  168.9904 C.3     1  UNL1        0.1148
     33 C         142.6037  139.9522  167.7299 C.3     1  UNL1        0.1123
     34 C         139.2691  137.7363  162.5406 C.3     1  UNL1        0.2525
     35 O         140.6995  137.2854  162.5644 O.3     1  UNL1       -0.4701
@<TRIPOS>BOND
     1    34    35    1
     2    35    19    1
     3    19    20   ar
     4    20    21   ar
     5    21    25    1
     6    25    26    1
     7    26    27    1
     8    27    28    1
     9    28    29   am
    10    29    30    1
    11    29    31    2
    12    28    32    1
    13    32    33    1
    14    21    22   ar
    15    22    23   ar
    16    23    24   ar
    17    24     1    1
    18     1     3    1
    19     3     4   ar
    20     4     5   ar
    21     5     6   ar
    22     6     7    1
    23     6     8   ar
    24     8    10    1
    25    10    11   ar
    26    11    12   ar
    27    12    13   ar
    28    13    14   ar
    29    14    15   ar
    30    15    16   ar
    31    16    17   ar
    32    17    18   ar
    33     8     9   ar
    34    24    19   ar
    35     9     3   ar
    36    33    25    1
    37    18    10   ar
    38    18    13   ar
    39     1     2    1
@<TRIPOS>MOLECULE
*****
 35 39 0 0 0
SMALL
GASTEIGER

@<TRIPOS>ATOM
      1 N         143.1341  137.5666  161.2167 N.pl3   1  UNL1       -0.2802
      2 H         143.4552  136.6374  161.1642 H       1  UNL1        0.1552
      3 C         142.9653  138.3737  159.9637 C.ar    1  UNL1        0.2208
      4 N         142.9715  137.6934  158.6269 N.ar    1  UNL1       -0.2111
      5 C         142.8028  138.5005  157.3738 C.ar    1  UNL1        0.1147
      6 C         142.6278  139.9879  157.4576 C.ar    1  UNL1        0.0960
      7 CL        142.4591  140.7950  156.2046 Cl      1  UNL1       -0.0790
      8 C         142.6217  140.6683  158.7946 C.ar    1  UNL1        0.1138
      9 N         142.7904  139.8611  160.0475 N.ar    1  UNL1       -0.2111
     10 C         142.4467  142.1557  158.8784 C.ar    1  UNL1        0.1031
     11 C         143.2002  143.1784  158.0807 C.ar    1  UNL1        0.1196
     12 N         142.7067  144.5363  158.4839 N.ar    1  UNL1       -0.2248
     13 C         141.6482  144.3528  159.5308 C.ar    1  UNL1        0.1479
     14 C         140.8100  145.3353  160.2935 C.ar    1  UNL1        0.0374
     15 C         139.8110  144.8466  161.3001 C.ar    1  UNL1        0.0046
     16 C         139.6503  143.3753  161.5439 C.ar    1  UNL1        0.0191
     17 C         140.4886  142.3927  160.7811 C.ar    1  UNL1        0.0815
     18 N         141.4875  142.8815  159.7746 N.ar    1  UNL1       -0.2874
     19 C         141.4032  138.1632  163.0601 C.ar    1  UNL1        0.1533
     20 C         141.0829  138.7718  164.3933 C.ar    1  UNL1        0.0527
     21 C         142.1729  139.3923  165.2159 C.ar    1  UNL1        0.0511
     22 C         143.5834  139.4043  164.7054 C.ar    1  UNL1        0.0160
     23 C         143.9037  138.7957  163.3724 C.ar    1  UNL1        0.0190
     24 C         142.8137  138.1752  162.5497 C.ar    1  UNL1        0.0850
     25 N         141.8525  140.0008  166.5489 N.pl3   1  UNL1       -0.3040
     26 C         140.7889  141.0531  166.6567 C.3     1  UNL1        0.1123
     27 C         140.4684  141.6617  167.9898 C.3     1  UNL1        0.1148
     28 N         141.2115  141.2180  169.2148 N.am    1  UNL1       -0.2760
     29 C         140.8910  141.8266  170.5479 C.2     1  UNL1        0.2262
     30 C         139.8274  142.8788  170.6558 C.3     1  UNL1        0.0948
     31 O         141.6341  141.3830  171.7731 O.2     1  UNL1       -0.2749
     32 C         142.2751  140.1658  169.1070 C.3     1  UNL1        0.1148
     33 C         142.5956  139.5572  167.7740 C.3     1  UNL1        0.1123
     34 C         138.8832  137.6627  162.6742 C.3     1  UNL1        0.2525
     35 O         140.3132  137.5426  162.2375 O.3     1  UNL1       -0.4701
@<TRIPOS>BOND
     1    34    35    1
     2    35    19    1
     3    19    20   ar
     4    20    21   ar
     5    21    25    1
     6    25    26    1
     7    26    27    1
     8    27    28    1
     9    28    29   am
    10    29    30    1
    11    29    31    2
    12    28    32    1
    13    32    33    1
    14    21    22   ar
    15    22    23   ar
    16    23    24   ar
    17    24     1    1
    18     1     3    1
    19     3     4   ar
    20     4     5   ar
    21     5     6   ar
    22     6     7    1
    23     6     8   ar
    24     8    10    1
    25    10    11   ar
    26    11    12   ar
    27    12    13   ar
    28    13    14   ar
    29    14    15   ar
    30    15    16   ar
    31    16    17   ar
    32    17    18   ar
    33     8     9   ar
    34    24    19   ar
    35     9     3   ar
    36    33    25    1
    37    18    10   ar
    38    18    13   ar
    39     1     2    1
