@<TRIPOS>MOLECULE
*****
 32 36 0 0 0
SMALL
GASTEIGER

@<TRIPOS>ATOM
      1 C         140.2440  138.0901  163.7857 C.2     1  UNL1        0.2257
      2 O         141.0727  136.8460  163.6621 O.2     1  UNL1       -0.2749
      3 N         139.7287  138.7736  162.5539 N.am    1  UNL1       -0.2760
      4 C         140.0422  138.2129  161.1984 C.3     1  UNL1        0.1149
      5 C         139.5269  138.8963  159.9666 C.3     1  UNL1        0.1141
      6 N         138.6982  140.1405  160.0902 N.pl3   1  UNL1       -0.2846
      7 C         138.3848  140.7012  161.4457 C.3     1  UNL1        0.1141
      8 C         138.9000  140.0177  162.6775 C.3     1  UNL1        0.1149
      9 C         138.1830  140.8239  158.8584 C.ar    1  UNL1        0.1631
     10 N         137.1442  140.2848  157.9201 N.ar    1  UNL1       -0.2241
     11 C         136.9353  141.2942  156.8303 C.ar    1  UNL1        0.0892
     12 C         136.0343  141.3045  155.6312 C.ar    1  UNL1        0.0197
     13 C         136.0429  142.4779  154.6968 C.ar    1  UNL1        0.0016
     14 C         136.9525  143.6409  154.9616 C.ar    1  UNL1        0.0006
     15 C         137.8535  143.6305  156.1607 C.ar    1  UNL1        0.0081
     16 C         137.8449  142.4571  157.0951 C.ar    1  UNL1        0.0497
     17 S         138.6160  142.1665  158.3485 S.2     1  UNL1       -0.0515
     18 C         140.9976  139.3530  165.9274 C.3     1  UNL1        0.0851
     19 C         140.6841  139.9137  167.2830 C.3     1  UNL1        0.0096
     20 C         139.3036  139.7722  167.8522 C.3     1  UNL1        0.0005
     21 C         138.2365  139.0700  167.0659 C.3     1  UNL1        0.0005
     22 C         138.5499  138.5093  165.7104 C.3     1  UNL1        0.0096
     23 C         139.9305  138.6508  165.1412 C.3     1  UNL1        0.0853
     24 N         142.6442  140.4994  164.2769 N.am    1  UNL1       -0.2959
     25 C         142.3782  139.4945  165.3582 C.2     1  UNL1        0.2231
     26 O         143.4927  138.6311  165.8704 O.2     1  UNL1       -0.2751
     27 H         141.9127  141.0661  163.9407 H       1  UNL1        0.1502
     28 C         144.0248  140.6409  163.7077 C.3     1  UNL1        0.1364
     29 C         145.4149  141.1626  163.4944 C.3     1  UNL1        0.0353
     30 C         144.5317  141.7848  164.5350 C.3     1  UNL1        0.0353
     31 N         143.9699  138.4514  161.6575 N.1     1  UNL1       -0.1943
     32 C         143.9973  139.5461  162.6826 C.1     1  UNL1        0.0896
@<TRIPOS>BOND
     1    31    32    3
     2    32    28    1
     3    28    24    1
     4    24    25   am
     5    25    26    2
     6    18    25    1
     7    18    19    1
     8    19    20    1
     9    20    21    1
    10    21    22    1
    11    22    23    1
    12    23     1    1
    13     1     2    2
    14     1     3   am
    15     3     4    1
    16     4     5    1
    17     5     6    1
    18     6     9    1
    19     9    10   ar
    20    10    11   ar
    21    11    12   ar
    22    12    13   ar
    23    13    14   ar
    24    14    15   ar
    25    15    16   ar
    26    16    17   ar
    27     6     7    1
    28     7     8    1
    29    28    29    1
    30    29    30    1
    31    30    28    1
    32    23    18    1
    33     8     3    1
    34    17     9   ar
    35    16    11   ar
    36    24    27    1
@<TRIPOS>MOLECULE
*****
 32 36 0 0 0
SMALL
GASTEIGER

@<TRIPOS>ATOM
      1 C         140.8051  142.1366  163.0590 C.2     1  UNL1        0.2257
      2 O         139.4253  142.6380  163.3666 O.2     1  UNL1       -0.2749
      3 N         141.0223  141.1941  161.9124 N.am    1  UNL1       -0.2760
      4 C         139.8597  140.7530  161.0736 C.3     1  UNL1        0.1149
      5 C         140.0770  139.8105  159.9270 C.3     1  UNL1        0.1141
      6 N         141.4568  139.3092  159.6194 N.pl3   1  UNL1       -0.2846
      7 C         142.6194  139.7503  160.4582 C.3     1  UNL1        0.1141
      8 C         142.4022  140.6928  161.6047 C.3     1  UNL1        0.1149
      9 C         141.6740  138.3667  158.4728 C.ar    1  UNL1        0.1631
     10 N         142.9633  137.6833  158.1253 N.ar    1  UNL1       -0.2241
     11 C         142.7262  136.8364  156.9102 C.ar    1  UNL1        0.0892
     12 C         143.6322  135.9402  156.1190 C.ar    1  UNL1        0.0197
     13 C         143.1024  135.2040  154.9244 C.ar    1  UNL1        0.0016
     14 C         141.6665  135.3638  154.5210 C.ar    1  UNL1        0.0006
     15 C         140.7605  136.2600  155.3121 C.ar    1  UNL1        0.0081
     16 C         141.2903  136.9962  156.5068 C.ar    1  UNL1        0.0497
     17 S         140.6401  137.9420  157.4725 S.2     1  UNL1       -0.0515
     18 C         142.2456  141.9033  165.2085 C.3     1  UNL1        0.0851
     19 C         143.4083  142.3445  166.0474 C.3     1  UNL1        0.0096
     20 C         144.2930  143.4601  165.5755 C.3     1  UNL1        0.0005
     21 C         144.0151  144.1345  164.2648 C.3     1  UNL1        0.0005
     22 C         142.8525  143.6934  163.4260 C.3     1  UNL1        0.0096
     23 C         141.9677  142.5777  163.8978 C.3     1  UNL1        0.0853
     24 N         139.9878  141.0894  166.2034 N.am    1  UNL1       -0.2959
     25 C         141.3609  140.7877  165.6803 C.2     1  UNL1        0.2231
     26 O         141.8492  139.3704  165.6291 O.2     1  UNL1       -0.2751
     27 H         139.6673  142.0197  166.2370 H       1  UNL1        0.1502
     28 C         139.1030  139.9739  166.6752 C.3     1  UNL1        0.1364
     29 C         138.0747  138.8821  166.6469 C.3     1  UNL1        0.0353
     30 C         138.3825  139.6552  165.3988 C.3     1  UNL1        0.0353
     31 N         139.9296  139.8362  169.5558 N.1     1  UNL1       -0.1943
     32 C         139.5163  139.9051  168.1155 C.1     1  UNL1        0.0896
@<TRIPOS>BOND
     1    31    32    3
     2    32    28    1
     3    28    24    1
     4    24    25   am
     5    25    26    2
     6    18    25    1
     7    18    19    1
     8    19    20    1
     9    20    21    1
    10    21    22    1
    11    22    23    1
    12    23     1    1
    13     1     2    2
    14     1     3   am
    15     3     4    1
    16     4     5    1
    17     5     6    1
    18     6     9    1
    19     9    10   ar
    20    10    11   ar
    21    11    12   ar
    22    12    13   ar
    23    13    14   ar
    24    14    15   ar
    25    15    16   ar
    26    16    17   ar
    27     6     7    1
    28     7     8    1
    29    28    29    1
    30    29    30    1
    31    30    28    1
    32    23    18    1
    33     8     3    1
    34    17     9   ar
    35    16    11   ar
    36    24    27    1
@<TRIPOS>MOLECULE
*****
 32 36 0 0 0
SMALL
GASTEIGER

@<TRIPOS>ATOM
      1 C         141.3591  139.6786  165.1591 C.2     1  UNL1        0.2257
      2 O         142.6887  139.3883  165.7900 O.2     1  UNL1       -0.2749
      3 N         141.2843  140.5255  163.9234 N.am    1  UNL1       -0.2760
      4 C         142.5389  141.0821  163.3184 C.3     1  UNL1        0.1149
      5 C         142.4640  141.9290  162.0826 C.3     1  UNL1        0.1141
      6 N         141.1345  142.2193  161.4518 N.pl3   1  UNL1       -0.2846
      7 C         139.8798  141.6627  162.0568 C.3     1  UNL1        0.1141
      8 C         139.9547  140.8158  163.2925 C.3     1  UNL1        0.1149
      9 C         141.0596  143.0662  160.2160 C.ar    1  UNL1        0.1631
     10 N         142.0230  144.1490  159.8295 N.ar    1  UNL1       -0.2241
     11 C         141.5670  144.7310  158.5244 C.ar    1  UNL1        0.0892
     12 C         142.1248  145.8259  157.6642 C.ar    1  UNL1        0.0197
     13 C         141.4373  146.1978  156.3840 C.ar    1  UNL1        0.0016
     14 C         140.1921  145.4748  155.9639 C.ar    1  UNL1        0.0006
     15 C         139.6343  144.3798  156.8241 C.ar    1  UNL1        0.0081
     16 C         140.3218  144.0079  158.1043 C.ar    1  UNL1        0.0497
     17 S         140.0082  142.9790  159.1498 S.2     1  UNL1       -0.0515
     18 C         139.5132  139.7612  166.9855 C.3     1  UNL1        0.0851
     19 C         138.2585  139.2045  167.5904 C.3     1  UNL1        0.0096
     20 C         137.5951  138.0088  166.9740 C.3     1  UNL1        0.0005
     21 C         138.1864  137.3696  165.7526 C.3     1  UNL1        0.0005
     22 C         139.4410  137.9262  165.1476 C.3     1  UNL1        0.0096
     23 C         140.1045  139.1220  165.7641 C.3     1  UNL1        0.0853
     24 N         140.8818  140.8273  168.9195 N.am    1  UNL1       -0.2959
     25 C         140.1766  140.9569  167.6020 C.2     1  UNL1        0.2231
     26 O         140.1347  142.2823  166.9009 O.2     1  UNL1       -0.2751
     27 H         140.9092  139.9573  169.3796 H       1  UNL1        0.1502
     28 C         141.5452  142.0230  169.5360 C.3     1  UNL1        0.1364
     29 C         142.6061  143.0277  169.8752 C.3     1  UNL1        0.0353
     30 C         142.9201  141.8882  168.9518 C.3     1  UNL1        0.0353
     31 N         139.2560  143.1233  171.1325 N.1     1  UNL1       -0.1943
     32 C         140.4005  142.5732  170.3343 C.1     1  UNL1        0.0896
@<TRIPOS>BOND
     1    31    32    3
     2    32    28    1
     3    28    24    1
     4    24    25   am
     5    25    26    2
     6    18    25    1
     7    18    19    1
     8    19    20    1
     9    20    21    1
    10    21    22    1
    11    22    23    1
    12    23     1    1
    13     1     2    2
    14     1     3   am
    15     3     4    1
    16     4     5    1
    17     5     6    1
    18     6     9    1
    19     9    10   ar
    20    10    11   ar
    21    11    12   ar
    22    12    13   ar
    23    13    14   ar
    24    14    15   ar
    25    15    16   ar
    26    16    17   ar
    27     6     7    1
    28     7     8    1
    29    28    29    1
    30    29    30    1
    31    30    28    1
    32    23    18    1
    33     8     3    1
    34    17     9   ar
    35    16    11   ar
    36    24    27    1
@<TRIPOS>MOLECULE
*****
 32 36 0 0 0
SMALL
GASTEIGER

@<TRIPOS>ATOM
      1 C         138.7003  140.3251  164.1824 C.2     1  UNL1        0.2257
      2 O         138.1833  139.3311  165.1796 O.2     1  UNL1       -0.2749
      3 N         139.1276  139.8673  162.8194 N.am    1  UNL1       -0.2760
      4 C         139.0379  138.4154  162.4536 C.3     1  UNL1        0.1149
      5 C         139.4652  137.9575  161.0906 C.3     1  UNL1        0.1141
      6 N         139.9823  138.9516  160.0934 N.pl3   1  UNL1       -0.2846
      7 C         140.0720  140.4035  160.4592 C.3     1  UNL1        0.1141
      8 C         139.6447  140.8613  161.8222 C.3     1  UNL1        0.1149
      9 C         140.4096  138.4937  158.7304 C.ar    1  UNL1        0.1631
     10 N         139.5195  137.8938  157.6825 N.ar    1  UNL1       -0.2241
     11 C         140.3618  137.5847  156.4804 C.ar    1  UNL1        0.0892
     12 C         140.0265  136.9838  155.1476 C.ar    1  UNL1        0.0197
     13 C         141.1019  136.7917  154.1197 C.ar    1  UNL1        0.0016
     14 C         142.5125  137.2005  154.4246 C.ar    1  UNL1        0.0006
     15 C         142.8478  137.8014  155.7574 C.ar    1  UNL1        0.0081
     16 C         141.7724  137.9935  156.7853 C.ar    1  UNL1        0.0497
     17 S         141.8019  138.5553  158.1759 S.2     1  UNL1       -0.0515
     18 C         140.0493  142.3211  165.1551 C.3     1  UNL1        0.0851
     19 C         140.1391  143.7731  165.5210 C.3     1  UNL1        0.0096
     20 C         138.9696  144.6810  165.2798 C.3     1  UNL1        0.0005
     21 C         137.7104  144.1369  164.6728 C.3     1  UNL1        0.0005
     22 C         137.6207  142.6850  164.3070 C.3     1  UNL1        0.0096
     23 C         138.7901  141.7770  164.5482 C.3     1  UNL1        0.0853
     24 N         141.0453  140.1681  166.2145 N.am    1  UNL1       -0.2959
     25 C         141.2187  141.4133  165.3963 C.2     1  UNL1        0.2231
     26 O         142.5615  141.7506  164.8193 O.2     1  UNL1       -0.2751
     27 H         140.1640  139.9467  166.5933 H       1  UNL1        0.1502
     28 C         142.2148  139.2602  166.4557 C.3     1  UNL1        0.1364
     29 C         143.2501  138.2014  166.2167 C.3     1  UNL1        0.0353
     30 C         142.2347  138.5105  165.1567 C.3     1  UNL1        0.0353
     31 N         142.9872  140.1293  169.2212 N.1     1  UNL1       -0.1943
     32 C         142.6010  139.6947  167.8385 C.1     1  UNL1        0.0896
@<TRIPOS>BOND
     1    31    32    3
     2    32    28    1
     3    28    24    1
     4    24    25   am
     5    25    26    2
     6    18    25    1
     7    18    19    1
     8    19    20    1
     9    20    21    1
    10    21    22    1
    11    22    23    1
    12    23     1    1
    13     1     2    2
    14     1     3   am
    15     3     4    1
    16     4     5    1
    17     5     6    1
    18     6     9    1
    19     9    10   ar
    20    10    11   ar
    21    11    12   ar
    22    12    13   ar
    23    13    14   ar
    24    14    15   ar
    25    15    16   ar
    26    16    17   ar
    27     6     7    1
    28     7     8    1
    29    28    29    1
    30    29    30    1
    31    30    28    1
    32    23    18    1
    33     8     3    1
    34    17     9   ar
    35    16    11   ar
    36    24    27    1
@<TRIPOS>MOLECULE
*****
 32 36 0 0 0
SMALL
GASTEIGER

@<TRIPOS>ATOM
      1 C         142.5965  143.3489  162.1197 C.2     1  UNL1        0.2257
      2 O         143.8536  144.1668  162.1398 O.2     1  UNL1       -0.2749
      3 N         142.4742  142.1845  161.1819 N.am    1  UNL1       -0.2760
      4 C         143.6091  141.8381  160.2644 C.3     1  UNL1        0.1149
      5 C         143.4868  140.6738  159.3266 C.3     1  UNL1        0.1141
      6 N         142.2296  139.8558  159.3065 N.pl3   1  UNL1       -0.2846
      7 C         141.0947  140.2022  160.2240 C.3     1  UNL1        0.1141
      8 C         141.2170  141.3666  161.1617 C.3     1  UNL1        0.1149
      9 C         142.1073  138.6915  158.3687 C.ar    1  UNL1        0.1631
     10 N         143.0936  137.5710  158.2210 N.ar    1  UNL1       -0.2241
     11 C         142.5731  136.6302  157.1750 C.ar    1  UNL1        0.0892
     12 C         143.1212  135.3524  156.6123 C.ar    1  UNL1        0.0197
     13 C         142.3614  134.6136  155.5509 C.ar    1  UNL1        0.0016
     14 C         141.0534  135.1526  155.0522 C.ar    1  UNL1        0.0006
     15 C         140.5053  136.4304  155.6149 C.ar    1  UNL1        0.0081
     16 C         141.2652  137.1692  156.6763 C.ar    1  UNL1        0.0497
     17 S         140.9773  138.4431  157.4141 S.2     1  UNL1       -0.0515
     18 C         141.3148  142.9847  164.3500 C.3     1  UNL1        0.0851
     19 C         140.1798  143.3311  165.2676 C.3     1  UNL1        0.0096
     20 C         139.1917  144.3882  164.8724 C.3     1  UNL1        0.0005
     21 C         139.3385  145.0988  163.5595 C.3     1  UNL1        0.0005
     22 C         140.4734  144.7524  162.6420 C.3     1  UNL1        0.0096
     23 C         141.4616  143.6953  163.0372 C.3     1  UNL1        0.0853
     24 N         141.9215  140.4789  164.6707 N.am    1  UNL1       -0.2959
     25 C         142.3029  141.9277  164.7453 C.2     1  UNL1        0.2231
     26 O         143.6725  142.3194  165.2151 O.2     1  UNL1       -0.2751
     27 H         141.0225  140.2218  164.3624 H       1  UNL1        0.1502
     28 C         142.9096  139.4219  165.0660 C.3     1  UNL1        0.1364
     29 C         143.6935  138.4765  165.9273 C.3     1  UNL1        0.0353
     30 C         142.6648  139.3765  166.5451 C.3     1  UNL1        0.0353
     31 N         144.0853  138.7783  162.3821 N.1     1  UNL1       -0.1943
     32 C         143.4975  139.1001  163.7240 C.1     1  UNL1        0.0896
@<TRIPOS>BOND
     1    31    32    3
     2    32    28    1
     3    28    24    1
     4    24    25   am
     5    25    26    2
     6    18    25    1
     7    18    19    1
     8    19    20    1
     9    20    21    1
    10    21    22    1
    11    22    23    1
    12    23     1    1
    13     1     2    2
    14     1     3   am
    15     3     4    1
    16     4     5    1
    17     5     6    1
    18     6     9    1
    19     9    10   ar
    20    10    11   ar
    21    11    12   ar
    22    12    13   ar
    23    13    14   ar
    24    14    15   ar
    25    15    16   ar
    26    16    17   ar
    27     6     7    1
    28     7     8    1
    29    28    29    1
    30    29    30    1
    31    30    28    1
    32    23    18    1
    33     8     3    1
    34    17     9   ar
    35    16    11   ar
    36    24    27    1
@<TRIPOS>MOLECULE
*****
 32 36 0 0 0
SMALL
GASTEIGER

@<TRIPOS>ATOM
      1 C         143.1966  141.5910  163.2309 C.2     1  UNL1        0.2257
      2 O         144.4081  141.3618  164.0850 O.2     1  UNL1       -0.2749
      3 N         142.9728  140.7538  162.0065 N.am    1  UNL1       -0.2760
      4 C         143.9606  139.6875  161.6363 C.3     1  UNL1        0.1149
      5 C         143.7369  138.8504  160.4119 C.3     1  UNL1        0.1141
      6 N         142.5253  139.0796  159.5578 N.pl3   1  UNL1       -0.2846
      7 C         141.5375  140.1459  159.9280 C.3     1  UNL1        0.1141
      8 C         141.7613  140.9830  161.1524 C.3     1  UNL1        0.1149
      9 C         142.3016  138.2424  158.3334 C.ar    1  UNL1        0.1631
     10 N         143.3499  137.4674  157.5915 N.ar    1  UNL1       -0.2241
     11 C         142.6864  136.7793  156.4355 C.ar    1  UNL1        0.0892
     12 C         143.2219  135.8795  155.3615 C.ar    1  UNL1        0.0197
     13 C         142.2989  135.3294  154.3148 C.ar    1  UNL1        0.0016
     14 C         140.8405  135.6791  154.3423 C.ar    1  UNL1        0.0006
     15 C         140.3051  136.5789  155.4163 C.ar    1  UNL1        0.0081
     16 C         141.2280  137.1290  156.4629 C.ar    1  UNL1        0.0497
     17 S         140.9902  138.0333  157.6359 S.2     1  UNL1       -0.0515
     18 C         140.9712  142.2991  164.3695 C.3     1  UNL1        0.0851
     19 C         139.9834  143.3655  164.7398 C.3     1  UNL1        0.0096
     20 C         140.2331  144.7900  164.3418 C.3     1  UNL1        0.0005
     21 C         141.4706  145.1482  163.5735 C.3     1  UNL1        0.0005
     22 C         142.4584  144.0819  163.2032 C.3     1  UNL1        0.0096
     23 C         142.2088  142.6573  163.6012 C.3     1  UNL1        0.0853
     24 N         139.6455  140.0829  164.0854 N.am    1  UNL1       -0.2959
     25 C         140.7215  140.8746  164.7675 C.2     1  UNL1        0.2231
     26 O         141.5479  140.2419  165.8476 O.2     1  UNL1       -0.2751
     27 H         139.1031  140.4982  163.3764 H       1  UNL1        0.1502
     28 C         139.3958  138.6584  164.4834 C.3     1  UNL1        0.1364
     29 C         138.8501  137.4792  165.2329 C.3     1  UNL1        0.0353
     30 C         138.4569  138.8702  165.6338 C.3     1  UNL1        0.0353
     31 N         141.1002  137.2456  162.4588 N.1     1  UNL1       -0.1943
     32 C         140.2480  137.9520  163.4711 C.1     1  UNL1        0.0896
@<TRIPOS>BOND
     1    31    32    3
     2    32    28    1
     3    28    24    1
     4    24    25   am
     5    25    26    2
     6    18    25    1
     7    18    19    1
     8    19    20    1
     9    20    21    1
    10    21    22    1
    11    22    23    1
    12    23     1    1
    13     1     2    2
    14     1     3   am
    15     3     4    1
    16     4     5    1
    17     5     6    1
    18     6     9    1
    19     9    10   ar
    20    10    11   ar
    21    11    12   ar
    22    12    13   ar
    23    13    14   ar
    24    14    15   ar
    25    15    16   ar
    26    16    17   ar
    27     6     7    1
    28     7     8    1
    29    28    29    1
    30    29    30    1
    31    30    28    1
    32    23    18    1
    33     8     3    1
    34    17     9   ar
    35    16    11   ar
    36    24    27    1
@<TRIPOS>MOLECULE
*****
 32 36 0 0 0
SMALL
GASTEIGER

@<TRIPOS>ATOM
      1 C         139.1445  142.5555  161.2978 C.2     1  UNL1        0.2257
      2 O         137.7059  142.9765  161.2428 O.2     1  UNL1       -0.2749
      3 N         139.6348  141.4442  160.4177 N.am    1  UNL1       -0.2760
      4 C         138.6866  140.7539  159.4827 C.3     1  UNL1        0.1149
      5 C         139.1770  139.6426  158.6026 C.3     1  UNL1        0.1141
      6 N         140.6156  139.2216  158.6576 N.pl3   1  UNL1       -0.2846
      7 C         141.5638  139.9119  159.5926 C.3     1  UNL1        0.1141
      8 C         141.0735  141.0232  160.4726 C.3     1  UNL1        0.1149
      9 C         141.1060  138.1103  157.7775 C.ar    1  UNL1        0.1631
     10 N         142.4402  137.4317  157.8749 N.ar    1  UNL1       -0.2241
     11 C         142.5070  136.3845  156.8031 C.ar    1  UNL1        0.0892
     12 C         143.5782  135.4065  156.4209 C.ar    1  UNL1        0.0197
     13 C         143.3564  134.4597  155.2788 C.ar    1  UNL1        0.0016
     14 C         142.0635  134.4909  154.5190 C.ar    1  UNL1        0.0006
     15 C         140.9924  135.4690  154.9012 C.ar    1  UNL1        0.0081
     16 C         141.2141  136.4157  156.0432 C.ar    1  UNL1        0.0497
     17 S         140.3483  137.4823  156.6455 S.2     1  UNL1       -0.0515
     18 C         140.2332  142.7666  163.6472 C.3     1  UNL1        0.0851
     19 C         141.1815  143.4570  164.5823 C.3     1  UNL1        0.0096
     20 C         141.9893  144.6264  164.1028 C.3     1  UNL1        0.0005
     21 C         141.8488  145.1056  162.6884 C.3     1  UNL1        0.0005
     22 C         140.9005  144.4153  161.7534 C.3     1  UNL1        0.0096
     23 C         140.0927  143.2458  162.2328 C.3     1  UNL1        0.0853
     24 N         140.0094  140.2161  164.0881 N.am    1  UNL1       -0.2959
     25 C         139.4255  141.5972  164.1267 C.2     1  UNL1        0.2231
     26 O         138.0338  141.8089  164.6447 O.2     1  UNL1       -0.2751
     27 H         140.9228  140.0771  163.7482 H       1  UNL1        0.1502
     28 C         139.2017  139.0466  164.5676 C.3     1  UNL1        0.1364
     29 C         138.5941  138.0404  165.4995 C.3     1  UNL1        0.0353
     30 C         139.4976  139.1104  166.0367 C.3     1  UNL1        0.0353
     31 N         138.0488  138.1068  161.9623 N.1     1  UNL1       -0.1943
     32 C         138.6252  138.5767  163.2649 C.1     1  UNL1        0.0896
@<TRIPOS>BOND
     1    31    32    3
     2    32    28    1
     3    28    24    1
     4    24    25   am
     5    25    26    2
     6    18    25    1
     7    18    19    1
     8    19    20    1
     9    20    21    1
    10    21    22    1
    11    22    23    1
    12    23     1    1
    13     1     2    2
    14     1     3   am
    15     3     4    1
    16     4     5    1
    17     5     6    1
    18     6     9    1
    19     9    10   ar
    20    10    11   ar
    21    11    12   ar
    22    12    13   ar
    23    13    14   ar
    24    14    15   ar
    25    15    16   ar
    26    16    17   ar
    27     6     7    1
    28     7     8    1
    29    28    29    1
    30    29    30    1
    31    30    28    1
    32    23    18    1
    33     8     3    1
    34    17     9   ar
    35    16    11   ar
    36    24    27    1
@<TRIPOS>MOLECULE
*****
 32 36 0 0 0
SMALL
GASTEIGER

@<TRIPOS>ATOM
      1 C         139.7841  140.9019  162.8460 C.2     1  UNL1        0.2257
      2 O         139.0661  139.5971  163.0244 O.2     1  UNL1       -0.2749
      3 N         140.8351  141.0406  161.7848 N.am    1  UNL1       -0.2760
      4 C         141.1681  139.8746  160.9020 C.3     1  UNL1        0.1149
      5 C         142.2192  140.0133  159.8408 C.3     1  UNL1        0.1141
      6 N         142.9372  141.3181  159.6624 N.pl3   1  UNL1       -0.2846
      7 C         142.6042  142.4842  160.5452 C.3     1  UNL1        0.1141
      8 C         141.5532  142.3454  161.6064 C.3     1  UNL1        0.1149
      9 C         143.9882  141.4568  158.6012 C.ar    1  UNL1        0.1631
     10 N         145.1192  142.4421  158.6039 N.ar    1  UNL1       -0.2241
     11 C         145.9228  142.2289  157.3554 C.ar    1  UNL1        0.0892
     12 C         147.1502  142.9076  156.8236 C.ar    1  UNL1        0.0197
     13 C         147.7432  142.4692  155.5174 C.ar    1  UNL1        0.0016
     14 C         147.1088  141.3521  154.7431 C.ar    1  UNL1        0.0006
     15 C         145.8814  140.6734  155.2749 C.ar    1  UNL1        0.0081
     16 C         145.2884  141.1118  156.5810 C.ar    1  UNL1        0.0497
     17 S         144.0928  140.6346  157.3510 S.2     1  UNL1       -0.0515
     18 C         140.2761  142.3431  164.9509 C.3     1  UNL1        0.0851
     19 C         139.9430  143.5093  165.8337 C.3     1  UNL1        0.0096
     20 C         138.7850  144.4002  165.4943 C.3     1  UNL1        0.0005
     21 C         137.9601  144.1251  164.2721 C.3     1  UNL1        0.0005
     22 C         138.2931  142.9590  163.3894 C.3     1  UNL1        0.0096
     23 C         139.4511  142.0680  163.7287 C.3     1  UNL1        0.0853
     24 N         141.1983  140.1565  166.0084 N.am    1  UNL1       -0.2959
     25 C         141.4341  141.4522  165.2903 C.2     1  UNL1        0.2231
     26 O         142.8279  141.8569  164.9116 O.2     1  UNL1       -0.2751
     27 H         140.2835  139.8909  166.2570 H       1  UNL1        0.1502
     28 C         142.3563  139.2656  166.3478 C.3     1  UNL1        0.1364
     29 C         143.4156  138.2137  166.2017 C.3     1  UNL1        0.0353
     30 C         142.4743  138.4928  165.0677 C.3     1  UNL1        0.0353
     31 N         142.9245  140.1924  169.1439 N.1     1  UNL1       -0.1943
     32 C         142.6404  139.7290  167.7459 C.1     1  UNL1        0.0896
@<TRIPOS>BOND
     1    31    32    3
     2    32    28    1
     3    28    24    1
     4    24    25   am
     5    25    26    2
     6    18    25    1
     7    18    19    1
     8    19    20    1
     9    20    21    1
    10    21    22    1
    11    22    23    1
    12    23     1    1
    13     1     2    2
    14     1     3   am
    15     3     4    1
    16     4     5    1
    17     5     6    1
    18     6     9    1
    19     9    10   ar
    20    10    11   ar
    21    11    12   ar
    22    12    13   ar
    23    13    14   ar
    24    14    15   ar
    25    15    16   ar
    26    16    17   ar
    27     6     7    1
    28     7     8    1
    29    28    29    1
    30    29    30    1
    31    30    28    1
    32    23    18    1
    33     8     3    1
    34    17     9   ar
    35    16    11   ar
    36    24    27    1
@<TRIPOS>MOLECULE
*****
 32 36 0 0 0
SMALL
GASTEIGER

@<TRIPOS>ATOM
      1 C         138.3480  141.1492  163.4434 C.2     1  UNL1        0.2257
      2 O         137.3558  142.2595  163.2620 O.2     1  UNL1       -0.2749
      3 N         138.9203  140.4517  162.2451 N.am    1  UNL1       -0.2760
      4 C         138.5005  140.8645  160.8655 C.3     1  UNL1        0.1149
      5 C         139.0729  140.1669  159.6672 C.3     1  UNL1        0.1141
      6 N         140.0651  139.0567  159.8485 N.pl3   1  UNL1       -0.2846
      7 C         140.4849  138.6440  161.2281 C.3     1  UNL1        0.1141
      8 C         139.9125  139.3415  162.4264 C.3     1  UNL1        0.1149
      9 C         140.6374  138.3592  158.6502 C.ar    1  UNL1        0.1631
     10 N         142.0577  137.9040  158.4899 N.ar    1  UNL1       -0.2241
     11 C         142.1881  137.2579  157.1425 C.ar    1  UNL1        0.0892
     12 C         143.3536  136.6259  156.4410 C.ar    1  UNL1        0.0197
     13 C         143.1794  136.0498  155.0670 C.ar    1  UNL1        0.0016
     14 C         141.8397  136.1056  154.3946 C.ar    1  UNL1        0.0006
     15 C         140.6742  136.7376  155.0961 C.ar    1  UNL1        0.0081
     16 C         140.8484  137.3137  156.4700 C.ar    1  UNL1        0.0497
     17 S         139.8901  137.9944  157.4019 S.2     1  UNL1       -0.0515
     18 C         139.8511  141.4915  165.5346 C.3     1  UNL1        0.0851
     19 C         140.2709  141.0787  166.9143 C.3     1  UNL1        0.0096
     20 C         139.6074  139.9110  167.5823 C.3     1  UNL1        0.0005
     21 C         138.5241  139.1560  166.8706 C.3     1  UNL1        0.0005
     22 C         138.1043  139.5688  165.4910 C.3     1  UNL1        0.0096
     23 C         138.7678  140.7365  164.8230 C.3     1  UNL1        0.0853
     24 N         141.7207  142.4425  164.0017 N.am    1  UNL1       -0.2959
     25 C         140.5145  142.6592  164.8667 C.2     1  UNL1        0.2231
     26 O         139.9719  144.0436  165.0638 O.2     1  UNL1       -0.2751
     27 H         142.0768  141.5339  163.8723 H       1  UNL1        0.1502
     28 C         142.3842  143.6103  163.3338 C.3     1  UNL1        0.1364
     29 C         143.3277  144.7536  163.1044 C.3     1  UNL1        0.0353
     30 C         143.4207  143.9456  164.3647 C.3     1  UNL1        0.0353
     31 N         140.7718  143.7507  160.8078 N.1     1  UNL1       -0.1943
     32 C         141.5780  143.6804  162.0707 C.1     1  UNL1        0.0896
@<TRIPOS>BOND
     1    31    32    3
     2    32    28    1
     3    28    24    1
     4    24    25   am
     5    25    26    2
     6    18    25    1
     7    18    19    1
     8    19    20    1
     9    20    21    1
    10    21    22    1
    11    22    23    1
    12    23     1    1
    13     1     2    2
    14     1     3   am
    15     3     4    1
    16     4     5    1
    17     5     6    1
    18     6     9    1
    19     9    10   ar
    20    10    11   ar
    21    11    12   ar
    22    12    13   ar
    23    13    14   ar
    24    14    15   ar
    25    15    16   ar
    26    16    17   ar
    27     6     7    1
    28     7     8    1
    29    28    29    1
    30    29    30    1
    31    30    28    1
    32    23    18    1
    33     8     3    1
    34    17     9   ar
    35    16    11   ar
    36    24    27    1
