@<TRIPOS>MOLECULE
*****
 28 30 0 0 0
SMALL
GASTEIGER

@<TRIPOS>ATOM
      1 N         138.7120  138.9958  162.8083 N.3     1  UNL1       -0.2724
      2 C         139.0748  137.7902  163.6238 C.3     1  UNL1        0.0758
      3 C         138.9539  137.8315  165.1183 C.3     1  UNL1        0.0609
      4 C         138.4702  139.0784  165.7974 C.3     1  UNL1        0.1687
      5 C         138.1074  140.2840  164.9820 C.3     1  UNL1        0.0609
      6 C         138.2283  140.2427  163.4874 C.3     1  UNL1        0.0758
      7 C         138.8330  138.9545  161.3138 C.3     1  UNL1        0.0721
      8 N         140.5384  142.4792  159.0961 N.3     1  UNL1       -0.2718
      9 C         141.4285  141.6324  159.9566 C.3     1  UNL1        0.0722
     10 C         140.8601  140.4575  160.6958 C.3     1  UNL1        0.0188
     11 C         139.4015  140.1294  160.5746 C.3     1  UNL1        0.0188
     12 C         138.5113  140.9762  159.7141 C.3     1  UNL1        0.0188
     13 C         139.0798  142.1511  158.9748 C.3     1  UNL1        0.0722
     14 C         141.1069  143.6541  158.3569 C.3     1  UNL1        0.0884
     15 C         141.2739  144.9706  159.0559 C.3     1  UNL1        0.1227
     16 N         139.4020  145.7416  161.2698 N.1     1  UNL1       -0.1958
     17 C         140.3380  145.3561  160.1629 C.1     1  UNL1        0.0746
     18 O         138.3492  139.1197  167.2920 O.3     1  UNL1       -0.4790
     19 C         139.3149  139.9345  168.1004 C.ar    1  UNL1        0.1392
     20 C         139.0098  140.2549  169.5337 C.ar    1  UNL1        0.0367
     21 C         139.9755  141.0696  170.3420 C.ar    1  UNL1        0.0021
     22 C         141.2464  141.5640  169.7171 C.ar    1  UNL1        0.0177
     23 C         141.5516  141.2436  168.2839 C.ar    1  UNL1        0.0590
     24 CL        142.8224  141.7380  167.6590 Cl      1  UNL1       -0.0824
     25 C         140.5858  140.4288  167.4755 C.ar    1  UNL1        0.0480
     26 C         142.2122  142.3788  170.5255 C.3     1  UNL1        0.1644
     27 O         142.2187  142.2676  172.0214 O.3     1  UNL1       -0.3772
     28 H         141.3825  142.6094  172.3747 H       1  UNL1        0.2109
@<TRIPOS>BOND
     1    16    17    3
     2    17    15    1
     3    15    14    1
     4    14     8    1
     5     8     9    1
     6     9    10    1
     7    10    11    1
     8    11     7    1
     9     7     1    1
    10     1     2    1
    11     2     3    1
    12     3     4    1
    13     4    18    1
    14    18    19    1
    15    19    20   ar
    16    20    21   ar
    17    21    22   ar
    18    22    26    1
    19    26    27    1
    20    22    23   ar
    21    23    24    1
    22    23    25   ar
    23     4     5    1
    24     5     6    1
    25    11    12    1
    26    12    13    1
    27    13     8    1
    28     6     1    1
    29    25    19   ar
    30    27    28    1
@<TRIPOS>MOLECULE
*****
 28 30 0 0 0
SMALL
GASTEIGER

@<TRIPOS>ATOM
      1 N         140.3337  138.4846  158.2118 N.3     1  UNL1       -0.2724
      2 C         141.7767  138.1943  158.5014 C.3     1  UNL1        0.0758
      3 C         142.5460  137.2594  157.6160 C.3     1  UNL1        0.0609
      4 C         141.8726  136.6148  156.4409 C.3     1  UNL1        0.1687
      5 C         140.4297  136.9050  156.1512 C.3     1  UNL1        0.0609
      6 C         139.6603  137.8399  157.0367 C.3     1  UNL1        0.0758
      7 C         139.5643  139.4194  159.0972 C.3     1  UNL1        0.0721
      8 N         139.6595  138.8779  163.5635 N.3     1  UNL1       -0.2718
      9 C         138.8253  137.9647  162.7148 C.3     1  UNL1        0.0722
     10 C         138.7936  138.1452  161.2261 C.3     1  UNL1        0.0188
     11 C         139.5961  139.2389  160.5859 C.3     1  UNL1        0.0188
     12 C         140.4302  140.1521  161.4346 C.3     1  UNL1        0.0188
     13 C         140.4619  139.9716  162.9233 C.3     1  UNL1        0.0722
     14 C         139.6912  138.6973  165.0522 C.3     1  UNL1        0.0884
     15 C         138.6595  139.3667  165.9110 C.3     1  UNL1        0.1227
     16 N         136.8609  137.7173  167.6558 N.1     1  UNL1       -0.1958
     17 C         137.7602  138.5420  166.7834 C.1     1  UNL1        0.0746
     18 O         142.6421  135.6798  155.5555 O.3     1  UNL1       -0.4790
     19 C         142.8980  134.2693  155.9967 C.ar    1  UNL1        0.1392
     20 C         141.9557  133.1743  155.5927 C.ar    1  UNL1        0.0367
     21 C         142.2117  131.7638  156.0340 C.ar    1  UNL1        0.0021
     22 C         143.4100  131.4481  156.8793 C.ar    1  UNL1        0.0177
     23 C         144.3523  132.5430  157.2833 C.ar    1  UNL1        0.0590
     24 CL        145.5506  132.2274  158.1285 Cl      1  UNL1       -0.0824
     25 C         144.0963  133.9537  156.8420 C.ar    1  UNL1        0.0480
     26 C         143.6660  130.0375  157.3205 C.3     1  UNL1        0.1644
     27 O         143.3317  129.6175  158.7212 O.3     1  UNL1       -0.3772
     28 H         143.9046  130.0894  159.3457 H       1  UNL1        0.2109
@<TRIPOS>BOND
     1    16    17    3
     2    17    15    1
     3    15    14    1
     4    14     8    1
     5     8     9    1
     6     9    10    1
     7    10    11    1
     8    11     7    1
     9     7     1    1
    10     1     2    1
    11     2     3    1
    12     3     4    1
    13     4    18    1
    14    18    19    1
    15    19    20   ar
    16    20    21   ar
    17    21    22   ar
    18    22    26    1
    19    26    27    1
    20    22    23   ar
    21    23    24    1
    22    23    25   ar
    23     4     5    1
    24     5     6    1
    25    11    12    1
    26    12    13    1
    27    13     8    1
    28     6     1    1
    29    25    19   ar
    30    27    28    1
@<TRIPOS>MOLECULE
*****
 28 30 0 0 0
SMALL
GASTEIGER

@<TRIPOS>ATOM
      1 N         138.8237  138.6152  162.8703 N.3     1  UNL1       -0.2724
      2 C         138.3032  139.9109  163.4185 C.3     1  UNL1        0.0758
      3 C         138.1276  140.0824  164.8983 C.3     1  UNL1        0.0609
      4 C         138.4724  138.9584  165.8298 C.3     1  UNL1        0.1687
      5 C         138.9928  137.6629  165.2816 C.3     1  UNL1        0.0609
      6 C         139.1685  137.4912  163.8018 C.3     1  UNL1        0.0758
      7 C         138.9993  138.4436  161.3905 C.3     1  UNL1        0.0721
      8 N         142.6513  140.1026  159.3508 N.3     1  UNL1       -0.2718
      9 C         141.2975  140.2876  158.7320 C.3     1  UNL1        0.0722
     10 C         140.0802  139.7347  159.4119 C.3     1  UNL1        0.0188
     11 C         140.2166  138.9966  160.7106 C.3     1  UNL1        0.0188
     12 C         141.5704  138.8116  161.3294 C.3     1  UNL1        0.0188
     13 C         142.7878  139.3645  160.6495 C.3     1  UNL1        0.0722
     14 C         143.8687  140.6556  158.6709 C.3     1  UNL1        0.0884
     15 C         144.1096  142.1359  158.6517 C.3     1  UNL1        0.1227
     16 N         142.7861  143.8977  160.6874 N.1     1  UNL1       -0.1958
     17 C         143.4479  143.0168  159.6695 C.1     1  UNL1        0.0746
     18 O         138.2968  139.1301  167.3096 O.3     1  UNL1       -0.4790
     19 C         139.2907  139.9337  168.0946 C.ar    1  UNL1        0.1392
     20 C         139.0062  140.2893  169.5238 C.ar    1  UNL1        0.0367
     21 C         140.0001  141.0929  170.3088 C.ar    1  UNL1        0.0021
     22 C         141.2786  141.5409  169.6647 C.ar    1  UNL1        0.0177
     23 C         141.5631  141.1852  168.2355 C.ar    1  UNL1        0.0590
     24 CL        142.8415  141.6331  167.5913 Cl      1  UNL1       -0.0824
     25 C         140.5691  140.3816  167.4505 C.ar    1  UNL1        0.0480
     26 C         142.2726  142.3445  170.4497 C.3     1  UNL1        0.1644
     27 O         142.2122  142.3550  171.9484 O.3     1  UNL1       -0.3772
     28 H         141.3920  142.7857  172.2360 H       1  UNL1        0.2109
@<TRIPOS>BOND
     1    16    17    3
     2    17    15    1
     3    15    14    1
     4    14     8    1
     5     8     9    1
     6     9    10    1
     7    10    11    1
     8    11     7    1
     9     7     1    1
    10     1     2    1
    11     2     3    1
    12     3     4    1
    13     4    18    1
    14    18    19    1
    15    19    20   ar
    16    20    21   ar
    17    21    22   ar
    18    22    26    1
    19    26    27    1
    20    22    23   ar
    21    23    24    1
    22    23    25   ar
    23     4     5    1
    24     5     6    1
    25    11    12    1
    26    12    13    1
    27    13     8    1
    28     6     1    1
    29    25    19   ar
    30    27    28    1
@<TRIPOS>MOLECULE
*****
 28 30 0 0 0
SMALL
GASTEIGER

@<TRIPOS>ATOM
      1 N         139.0257  143.6760  162.4294 N.3     1  UNL1       -0.2724
      2 C         139.2201  145.1619  162.4980 C.3     1  UNL1        0.0758
      3 C         140.1020  145.8498  161.4986 C.3     1  UNL1        0.0609
      4 C         140.7896  145.0520  160.4306 C.3     1  UNL1        0.1687
      5 C         140.5953  143.5663  160.3619 C.3     1  UNL1        0.0609
      6 C         139.7133  142.8782  161.3613 C.3     1  UNL1        0.0758
      7 C         138.1438  142.9881  163.4288 C.3     1  UNL1        0.0721
      8 N         139.9587  140.9680  167.0169 N.3     1  UNL1       -0.2718
      9 C         139.0002  140.2189  166.1395 C.3     1  UNL1        0.0722
     10 C         138.3952  140.8922  164.9434 C.3     1  UNL1        0.0188
     11 C         138.7488  142.3147  164.6248 C.3     1  UNL1        0.0188
     12 C         139.7073  143.0638  165.5023 C.3     1  UNL1        0.0188
     13 C         140.3123  142.3905  166.6984 C.3     1  UNL1        0.0722
     14 C         140.5637  140.2946  168.2130 C.3     1  UNL1        0.0884
     15 C         139.8229  140.2748  169.5171 C.3     1  UNL1        0.1227
     16 N         140.6633  142.0966  171.7475 N.1     1  UNL1       -0.1958
     17 C         140.2431  141.1857  170.6323 C.1     1  UNL1        0.0746
     18 O         141.6716  145.7401  159.4311 O.3     1  UNL1       -0.4790
     19 C         141.3701  145.6331  157.9657 C.ar    1  UNL1        0.1392
     20 C         142.3101  144.8961  157.0583 C.ar    1  UNL1        0.0367
     21 C         142.0085  144.7892  155.5929 C.ar    1  UNL1        0.0021
     22 C         140.7669  145.4192  155.0347 C.ar    1  UNL1        0.0177
     23 C         139.8269  146.1561  155.9421 C.ar    1  UNL1        0.0590
     24 CL        138.5853  146.7861  155.3840 Cl      1  UNL1       -0.0824
     25 C         140.1285  146.2631  157.4076 C.ar    1  UNL1        0.0480
     26 C         140.4653  145.3122  153.5693 C.3     1  UNL1        0.1644
     27 O         140.6105  146.5144  152.6840 O.3     1  UNL1       -0.3772
     28 H         139.9546  147.1829  152.9363 H       1  UNL1        0.2109
@<TRIPOS>BOND
     1    16    17    3
     2    17    15    1
     3    15    14    1
     4    14     8    1
     5     8     9    1
     6     9    10    1
     7    10    11    1
     8    11     7    1
     9     7     1    1
    10     1     2    1
    11     2     3    1
    12     3     4    1
    13     4    18    1
    14    18    19    1
    15    19    20   ar
    16    20    21   ar
    17    21    22   ar
    18    22    26    1
    19    26    27    1
    20    22    23   ar
    21    23    24    1
    22    23    25   ar
    23     4     5    1
    24     5     6    1
    25    11    12    1
    26    12    13    1
    27    13     8    1
    28     6     1    1
    29    25    19   ar
    30    27    28    1
@<TRIPOS>MOLECULE
*****
 28 30 0 0 0
SMALL
GASTEIGER

@<TRIPOS>ATOM
      1 N         139.0078  139.3767  160.7900 N.3     1  UNL1       -0.2724
      2 C         139.0216  137.9955  161.3749 C.3     1  UNL1        0.0758
      3 C         138.8057  137.8020  162.8466 C.3     1  UNL1        0.0609
      4 C         138.5760  138.9898  163.7334 C.3     1  UNL1        0.1687
      5 C         138.5622  140.3710  163.1486 C.3     1  UNL1        0.0609
      6 C         138.7781  140.5645  161.6768 C.3     1  UNL1        0.0758
      7 C         139.2237  139.5701  159.3183 C.3     1  UNL1        0.0721
      8 N         142.2785  137.0804  157.1459 N.3     1  UNL1       -0.2718
      9 C         142.6793  137.8732  158.3545 C.3     1  UNL1        0.0722
     10 C         141.6610  138.7031  159.0786 C.3     1  UNL1        0.0188
     11 C         140.2419  138.7402  158.5941 C.3     1  UNL1        0.0188
     12 C         139.8411  137.9474  157.3855 C.3     1  UNL1        0.0188
     13 C         140.8594  137.1175  156.6614 C.3     1  UNL1        0.0722
     14 C         143.2967  136.2505  156.4217 C.3     1  UNL1        0.0884
     15 C         142.8653  135.0382  155.6508 C.3     1  UNL1        0.1227
     16 N         142.6418  132.3840  157.0311 N.1     1  UNL1       -0.1958
     17 C         142.7536  133.7111  156.3409 C.1     1  UNL1        0.0746
     18 O         138.3601  138.7963  165.2052 O.3     1  UNL1       -0.4790
     19 C         139.4247  139.2053  166.1795 C.ar    1  UNL1        0.1392
     20 C         140.8703  139.1284  165.7869 C.ar    1  UNL1        0.0367
     21 C         141.9349  139.5374  166.7613 C.ar    1  UNL1        0.0021
     22 C         141.5538  140.0234  168.1283 C.ar    1  UNL1        0.0177
     23 C         140.1081  140.1004  168.5209 C.ar    1  UNL1        0.0590
     24 CL        139.7270  140.5863  169.8878 Cl      1  UNL1       -0.0824
     25 C         139.0436  139.6913  167.5465 C.ar    1  UNL1        0.0480
     26 C         142.6184  140.4324  169.1026 C.3     1  UNL1        0.1644
     27 O         143.0994  139.4610  170.1394 O.3     1  UNL1       -0.3772
     28 H         142.3789  139.2659  170.7588 H       1  UNL1        0.2109
@<TRIPOS>BOND
     1    16    17    3
     2    17    15    1
     3    15    14    1
     4    14     8    1
     5     8     9    1
     6     9    10    1
     7    10    11    1
     8    11     7    1
     9     7     1    1
    10     1     2    1
    11     2     3    1
    12     3     4    1
    13     4    18    1
    14    18    19    1
    15    19    20   ar
    16    20    21   ar
    17    21    22   ar
    18    22    26    1
    19    26    27    1
    20    22    23   ar
    21    23    24    1
    22    23    25   ar
    23     4     5    1
    24     5     6    1
    25    11    12    1
    26    12    13    1
    27    13     8    1
    28     6     1    1
    29    25    19   ar
    30    27    28    1
@<TRIPOS>MOLECULE
*****
 28 30 0 0 0
SMALL
GASTEIGER

@<TRIPOS>ATOM
      1 N         138.4997  138.9680  162.8673 N.3     1  UNL1       -0.2724
      2 C         138.9082  137.7174  163.5880 C.3     1  UNL1        0.0758
      3 C         138.9185  137.6853  165.0875 C.3     1  UNL1        0.0609
      4 C         138.5203  138.9038  165.8666 C.3     1  UNL1        0.1687
      5 C         138.1118  140.1543  165.1460 C.3     1  UNL1        0.0609
      6 C         138.1015  140.1864  163.6463 C.3     1  UNL1        0.0758
      7 C         138.4894  139.0001  161.3677 C.3     1  UNL1        0.0721
      8 N         142.1900  140.2223  159.1179 N.3     1  UNL1       -0.2718
      9 C         140.9180  140.9988  158.9476 C.3     1  UNL1        0.0722
     10 C         139.6844  140.5914  159.6975 C.3     1  UNL1        0.0188
     11 C         139.7229  139.4075  160.6178 C.3     1  UNL1        0.0188
     12 C         140.9949  138.6311  160.7881 C.3     1  UNL1        0.0188
     13 C         142.2285  139.0385  160.0382 C.3     1  UNL1        0.0722
     14 C         143.4235  140.6297  158.3679 C.3     1  UNL1        0.0884
     15 C         143.4596  140.5280  156.8719 C.3     1  UNL1        0.1227
     16 N         145.2043  138.4769  155.5494 N.1     1  UNL1       -0.1958
     17 C         144.3319  139.5025  156.2106 C.1     1  UNL1        0.0746
     18 O         138.5306  138.8716  167.3662 O.3     1  UNL1       -0.4790
     19 C         139.4045  139.8211  168.1308 C.ar    1  UNL1        0.1392
     20 C         138.9571  140.3448  169.4633 C.ar    1  UNL1        0.0367
     21 C         139.8311  141.2943  170.2278 C.ar    1  UNL1        0.0021
     22 C         141.1525  141.7202  169.6599 C.ar    1  UNL1        0.0177
     23 C         141.5999  141.1965  168.3273 C.ar    1  UNL1        0.0590
     24 CL        142.9212  141.6224  167.7594 Cl      1  UNL1       -0.0824
     25 C         140.7259  140.2470  167.5628 C.ar    1  UNL1        0.0480
     26 C         142.0265  142.6697  170.4244 C.3     1  UNL1        0.1644
     27 O         142.3046  142.4278  171.8784 O.3     1  UNL1       -0.3772
     28 H         141.4824  142.5205  172.3847 H       1  UNL1        0.2109
@<TRIPOS>BOND
     1    16    17    3
     2    17    15    1
     3    15    14    1
     4    14     8    1
     5     8     9    1
     6     9    10    1
     7    10    11    1
     8    11     7    1
     9     7     1    1
    10     1     2    1
    11     2     3    1
    12     3     4    1
    13     4    18    1
    14    18    19    1
    15    19    20   ar
    16    20    21   ar
    17    21    22   ar
    18    22    26    1
    19    26    27    1
    20    22    23   ar
    21    23    24    1
    22    23    25   ar
    23     4     5    1
    24     5     6    1
    25    11    12    1
    26    12    13    1
    27    13     8    1
    28     6     1    1
    29    25    19   ar
    30    27    28    1
@<TRIPOS>MOLECULE
*****
 28 30 0 0 0
SMALL
GASTEIGER

@<TRIPOS>ATOM
      1 N         142.7895  138.5668  162.6869 N.3     1  UNL1       -0.2724
      2 C         144.0230  139.1911  163.2691 C.3     1  UNL1        0.0758
      3 C         144.2357  139.1883  164.7539 C.3     1  UNL1        0.0609
      4 C         143.2151  138.5612  165.6566 C.3     1  UNL1        0.1687
      5 C         141.9817  137.9368  165.0746 C.3     1  UNL1        0.0609
      6 C         141.7688  137.9396  163.5897 C.3     1  UNL1        0.0758
      7 C         142.5767  138.5696  161.2021 C.3     1  UNL1        0.0721
      8 N         141.3056  142.3501  159.1184 N.3     1  UNL1       -0.2718
      9 C         142.7630  142.0604  159.3234 C.3     1  UNL1        0.0722
     10 C         143.1867  140.8002  160.0179 C.3     1  UNL1        0.0188
     11 C         142.1530  139.8298  160.5076 C.3     1  UNL1        0.0188
     12 C         140.6956  140.1196  160.3026 C.3     1  UNL1        0.0188
     13 C         140.2719  141.3797  159.6081 C.3     1  UNL1        0.0722
     14 C         140.8819  143.6103  158.4239 C.3     1  UNL1        0.0884
     15 C         141.1986  144.9445  159.0317 C.3     1  UNL1        0.1227
     16 N         139.5016  146.0184  161.2604 N.1     1  UNL1       -0.1958
     17 C         140.3501  145.4815  160.1461 C.1     1  UNL1        0.0746
     18 O         143.4279  138.5584  167.1415 O.3     1  UNL1       -0.4790
     19 C         142.6085  139.4582  168.0183 C.ar    1  UNL1        0.1392
     20 C         142.4034  139.1133  169.4636 C.ar    1  UNL1        0.0367
     21 C         141.5840  140.0131  170.3404 C.ar    1  UNL1        0.0021
     22 C         140.9696  141.2579  169.7719 C.ar    1  UNL1        0.0177
     23 C         141.1748  141.6028  168.3266 C.ar    1  UNL1        0.0590
     24 CL        140.5605  142.8476  167.7581 Cl      1  UNL1       -0.0824
     25 C         141.9943  140.7029  167.4498 C.ar    1  UNL1        0.0480
     26 C         140.1502  142.1578  170.6487 C.3     1  UNL1        0.1644
     27 O         140.4639  142.2684  172.1114 O.3     1  UNL1       -0.3772
     28 H         140.2905  141.4180  172.5445 H       1  UNL1        0.2109
@<TRIPOS>BOND
     1    16    17    3
     2    17    15    1
     3    15    14    1
     4    14     8    1
     5     8     9    1
     6     9    10    1
     7    10    11    1
     8    11     7    1
     9     7     1    1
    10     1     2    1
    11     2     3    1
    12     3     4    1
    13     4    18    1
    14    18    19    1
    15    19    20   ar
    16    20    21   ar
    17    21    22   ar
    18    22    26    1
    19    26    27    1
    20    22    23   ar
    21    23    24    1
    22    23    25   ar
    23     4     5    1
    24     5     6    1
    25    11    12    1
    26    12    13    1
    27    13     8    1
    28     6     1    1
    29    25    19   ar
    30    27    28    1
@<TRIPOS>MOLECULE
*****
 28 30 0 0 0
SMALL
GASTEIGER

@<TRIPOS>ATOM
      1 N         140.3164  138.5653  158.3038 N.3     1  UNL1       -0.2724
      2 C         139.6816  137.9369  157.0986 C.3     1  UNL1        0.0758
      3 C         140.4793  137.0133  156.2265 C.3     1  UNL1        0.0609
      4 C         141.9118  136.7181  156.5595 C.3     1  UNL1        0.1687
      5 C         142.5466  137.3464  157.7646 C.3     1  UNL1        0.0609
      6 C         141.7489  138.2700  158.6367 C.3     1  UNL1        0.0758
      7 C         139.5187  139.4889  159.1759 C.3     1  UNL1        0.0721
      8 N         139.6538  139.0344  163.6508 N.3     1  UNL1       -0.2718
      9 C         140.4550  140.1116  162.9818 C.3     1  UNL1        0.0722
     10 C         140.4100  140.2631  161.4902 C.3     1  UNL1        0.0188
     11 C         139.5637  139.3374  160.6675 C.3     1  UNL1        0.0188
     12 C         138.7625  138.2602  161.3365 C.3     1  UNL1        0.0188
     13 C         138.8075  138.1087  162.8281 C.3     1  UNL1        0.0722
     14 C         139.6988  138.8829  165.1425 C.3     1  UNL1        0.0884
     15 C         138.5977  139.4514  165.9876 C.3     1  UNL1        0.1227
     16 N         136.8578  137.6249  167.6115 N.1     1  UNL1       -0.1958
     17 C         137.7278  138.5381  166.7995 C.1     1  UNL1        0.0746
     18 O         142.7095  135.7944  155.6873 O.3     1  UNL1       -0.4790
     19 C         142.8790  134.3557  156.0761 C.ar    1  UNL1        0.1392
     20 C         143.9182  133.9692  157.0865 C.ar    1  UNL1        0.0367
     21 C         144.0877  132.5305  157.4753 C.ar    1  UNL1        0.0021
     22 C         143.2180  131.4781  156.8537 C.ar    1  UNL1        0.0177
     23 C         142.1789  131.8645  155.8434 C.ar    1  UNL1        0.0590
     24 CL        141.3093  130.8122  155.2218 Cl      1  UNL1       -0.0824
     25 C         142.0094  133.3034  155.4546 C.ar    1  UNL1        0.0480
     26 C         143.3875  130.0393  157.2425 C.3     1  UNL1        0.1644
     27 O         143.6154  129.6724  158.6790 O.3     1  UNL1       -0.3772
     28 H         144.4725  130.0212  158.9698 H       1  UNL1        0.2109
@<TRIPOS>BOND
     1    16    17    3
     2    17    15    1
     3    15    14    1
     4    14     8    1
     5     8     9    1
     6     9    10    1
     7    10    11    1
     8    11     7    1
     9     7     1    1
    10     1     2    1
    11     2     3    1
    12     3     4    1
    13     4    18    1
    14    18    19    1
    15    19    20   ar
    16    20    21   ar
    17    21    22   ar
    18    22    26    1
    19    26    27    1
    20    22    23   ar
    21    23    24    1
    22    23    25   ar
    23     4     5    1
    24     5     6    1
    25    11    12    1
    26    12    13    1
    27    13     8    1
    28     6     1    1
    29    25    19   ar
    30    27    28    1
@<TRIPOS>MOLECULE
*****
 28 30 0 0 0
SMALL
GASTEIGER

@<TRIPOS>ATOM
      1 N         140.4462  139.2831  162.0555 N.3     1  UNL1       -0.2724
      2 C         140.1168  138.0728  162.8782 C.3     1  UNL1        0.0758
      3 C         140.6711  137.9351  164.2651 C.3     1  UNL1        0.0609
      4 C         141.5548  139.0077  164.8295 C.3     1  UNL1        0.1687
      5 C         141.8843  140.2180  164.0070 C.3     1  UNL1        0.0609
      6 C         141.3300  140.3557  162.6199 C.3     1  UNL1        0.0758
      7 C         139.8919  139.4208  160.6686 C.3     1  UNL1        0.0721
      8 N         141.9045  137.3388  157.2241 N.3     1  UNL1       -0.2718
      9 C         140.4528  137.7053  157.1341 C.3     1  UNL1        0.0722
     10 C         139.7819  138.3993  158.2823 C.3     1  UNL1        0.0188
     11 C         140.5628  138.7268  159.5204 C.3     1  UNL1        0.0188
     12 C         142.0145  138.3603  159.6104 C.3     1  UNL1        0.0188
     13 C         142.6854  137.6662  158.4622 C.3     1  UNL1        0.0722
     14 C         142.5754  136.6447  156.0760 C.3     1  UNL1        0.0884
     15 C         143.5941  135.5753  156.3378 C.3     1  UNL1        0.1227
     16 N         142.7065  132.8096  157.0883 N.1     1  UNL1       -0.1958
     17 C         143.1503  134.1925  156.7130 C.1     1  UNL1        0.0746
     18 O         142.1092  138.8699  166.2166 O.3     1  UNL1       -0.4790
     19 C         141.6539  139.7998  167.3020 C.ar    1  UNL1        0.1392
     20 C         140.2046  139.8533  167.6847 C.ar    1  UNL1        0.0367
     21 C         139.7493  140.7832  168.7701 C.ar    1  UNL1        0.0021
     22 C         140.7435  141.6596  169.4728 C.ar    1  UNL1        0.0177
     23 C         142.1929  141.6061  169.0900 C.ar    1  UNL1        0.0590
     24 CL        143.1870  142.4824  169.7926 Cl      1  UNL1       -0.0824
     25 C         142.6481  140.6761  168.0046 C.ar    1  UNL1        0.0480
     26 C         140.2883  142.5895  170.5581 C.3     1  UNL1        0.1644
     27 O         140.5281  142.2378  171.9965 O.3     1  UNL1       -0.3772
     28 H         140.0092  141.4517  172.2280 H       1  UNL1        0.2109
@<TRIPOS>BOND
     1    16    17    3
     2    17    15    1
     3    15    14    1
     4    14     8    1
     5     8     9    1
     6     9    10    1
     7    10    11    1
     8    11     7    1
     9     7     1    1
    10     1     2    1
    11     2     3    1
    12     3     4    1
    13     4    18    1
    14    18    19    1
    15    19    20   ar
    16    20    21   ar
    17    21    22   ar
    18    22    26    1
    19    26    27    1
    20    22    23   ar
    21    23    24    1
    22    23    25   ar
    23     4     5    1
    24     5     6    1
    25    11    12    1
    26    12    13    1
    27    13     8    1
    28     6     1    1
    29    25    19   ar
    30    27    28    1
