@<TRIPOS>MOLECULE
*****
 38 42 0 0 0
SMALL
GASTEIGER

@<TRIPOS>ATOM
      1 C         138.7617  138.5447  165.2956 C.ar    1  UNL1        0.2221
      2 N         137.7197  138.2868  166.3434 N.ar    1  UNL1       -0.2119
      3 C         137.8654  138.8880  167.7100 C.ar    1  UNL1        0.1050
      4 C         139.0530  139.7470  168.0287 C.ar    1  UNL1        0.0596
      5 C         140.0950  140.0050  166.9809 C.ar    1  UNL1        0.1683
      6 N         139.9493  139.4038  165.6144 N.ar    1  UNL1       -0.1944
      7 N         141.2825  140.8640  167.2996 N.ar    1  UNL1       -0.2096
      8 C         142.0979  141.6432  166.3107 C.ar    1  UNL1        0.1175
      9 C         143.1826  142.3555  167.0631 C.ar    1  UNL1        0.0796
     10 C         143.0375  142.0165  168.5171 C.ar    1  UNL1        0.0939
     11 C         143.9131  142.5122  169.6296 C.3     1  UNL1        0.0553
     12 N         141.8633  141.0947  168.6633 N.ar    1  UNL1       -0.1668
     13 N         144.2286  143.2498  166.4664 N.pl3   1  UNL1       -0.3307
     14 H         144.8118  143.7843  167.0524 H       1  UNL1        0.1469
     15 C         144.3860  143.3296  164.9768 C.3     1  UNL1        0.0850
     16 C         145.0470  142.2082  164.2312 C.3     1  UNL1        0.0223
     17 C         145.2045  142.2881  162.7416 C.3     1  UNL1        0.0188
     18 C         144.7010  143.4893  161.9976 C.3     1  UNL1        0.0687
     19 N         144.0400  144.6107  162.7431 N.3     1  UNL1       -0.2961
     20 C         143.8826  144.5308  164.2327 C.3     1  UNL1        0.0883
     21 H         143.1030  144.7116  162.3530 H       1  UNL1        0.1233
     22 N         138.6160  137.9436  163.9291 N.pl3   1  UNL1       -0.2825
     23 H         138.5367  136.9677  163.8266 H       1  UNL1        0.1551
     24 C         138.4377  142.6958  161.5191 C.ar    1  UNL1        0.1554
     25 N         138.4404  143.0134  160.0531 N.ar    1  UNL1       -0.1646
     26 N         138.5048  141.7186  159.2986 N.ar    1  UNL1       -0.2487
     27 C         138.5281  141.5679  157.8063 C.3     1  UNL1        0.1537
     28 C         138.5419  140.6008  160.2982 C.ar    1  UNL1        0.0796
     29 C         138.6081  139.1111  160.1361 C.ar    1  UNL1        0.0201
     30 C         138.6328  138.2254  161.3464 C.ar    1  UNL1        0.0162
     31 C         138.5913  138.8294  162.7188 C.ar    1  UNL1        0.0506
     32 C         138.5251  140.3191  162.8809 C.ar    1  UNL1        0.0179
     33 C         138.5004  141.2048  161.6706 C.ar    1  UNL1        0.0423
     34 C         139.1799  144.5017  164.9743 C.3     1  UNL1        0.1110
     35 N         139.2356  143.5035  163.8561 N.am    1  UNL1       -0.2979
     36 C         138.3820  143.6941  162.6373 C.2     1  UNL1        0.2654
     37 O         137.4728  144.8828  162.5370 O.2     1  UNL1       -0.2684
     38 H         139.8324  142.7233  163.9220 H       1  UNL1        0.1498
@<TRIPOS>BOND
     1    34    35    1
     2    35    36   am
     3    36    37    2
     4    36    24    1
     5    24    25   ar
     6    25    26   ar
     7    26    27    1
     8    26    28   ar
     9    28    29   ar
    10    29    30   ar
    11    30    31   ar
    12    31    22    1
    13    22     1    1
    14     1     2   ar
    15     2     3   ar
    16     3     4   ar
    17     4     5   ar
    18     5     7    1
    19     7     8   ar
    20     8     9   ar
    21     9    13    1
    22    15    13    1
    23    15    16    1
    24    16    17    1
    25    17    18    1
    26    18    19    1
    27    19    20    1
    28     9    10   ar
    29    10    11    1
    30    10    12   ar
    31     5     6   ar
    32    31    32   ar
    33    32    33   ar
    34    33    24   ar
    35    33    28   ar
    36     6     1   ar
    37    12     7   ar
    38    20    15    1
    39    35    38    1
    40    22    23    1
    41    13    14    1
    42    19    21    1
@<TRIPOS>MOLECULE
*****
 38 42 0 0 0
SMALL
GASTEIGER

@<TRIPOS>ATOM
      1 C         144.0775  140.5674  160.9324 C.ar    1  UNL1        0.2221
      2 N         144.1074  139.2739  160.1736 N.ar    1  UNL1       -0.2119
      3 C         143.6337  138.0096  160.8274 C.ar    1  UNL1        0.1050
      4 C         143.1301  138.0390  162.2400 C.ar    1  UNL1        0.0596
      5 C         143.1002  139.3326  162.9988 C.ar    1  UNL1        0.1683
      6 N         143.5739  140.5968  162.3451 N.ar    1  UNL1       -0.1944
      7 N         142.5967  139.3620  164.4114 N.ar    1  UNL1       -0.2096
      8 C         143.4160  139.1219  165.6448 C.ar    1  UNL1        0.1175
      9 C         142.5111  139.2482  166.8343 C.ar    1  UNL1        0.0796
     10 C         141.1324  139.5662  166.3362 C.ar    1  UNL1        0.0939
     11 C         139.9146  139.7770  167.1863 C.3     1  UNL1        0.0553
     12 N         141.1853  139.6366  164.8388 N.ar    1  UNL1       -0.1668
     13 N         142.9140  139.0850  168.2700 N.pl3   1  UNL1       -0.3307
     14 H         143.3217  138.2420  168.5740 H       1  UNL1        0.1469
     15 C         142.6958  140.2062  169.2423 C.3     1  UNL1        0.0850
     16 C         142.8063  141.6298  168.7826 C.3     1  UNL1        0.0223
     17 C         142.5881  142.7510  169.7549 C.3     1  UNL1        0.0188
     18 C         142.2594  142.4486  171.1868 C.3     1  UNL1        0.0687
     19 N         142.1490  141.0250  171.6466 N.3     1  UNL1       -0.2961
     20 C         142.3672  139.9038  170.6742 C.3     1  UNL1        0.0883
     21 H         141.2081  140.9093  172.0231 H       1  UNL1        0.1233
     22 N         144.5512  141.8316  160.2786 N.pl3   1  UNL1       -0.2825
     23 H         145.5144  142.0291  160.2289 H       1  UNL1        0.1551
     24 C         140.3260  145.0672  160.5996 C.ar    1  UNL1        0.1554
     25 N         139.6899  145.9010  159.5272 N.ar    1  UNL1       -0.1646
     26 N         140.4585  145.6874  158.2569 N.ar    1  UNL1       -0.2487
     27 C         140.1671  146.3273  156.9319 C.3     1  UNL1        0.1537
     28 C         141.5696  144.7215  158.5442 C.ar    1  UNL1        0.0796
     29 C         142.6453  144.1416  157.6745 C.ar    1  UNL1        0.0201
     30 C         143.6391  143.1783  158.2526 C.ar    1  UNL1        0.0162
     31 C         143.5573  142.7949  159.7005 C.ar    1  UNL1        0.0506
     32 C         142.4816  143.3749  160.5702 C.ar    1  UNL1        0.0179
     33 C         141.4877  144.3382  159.9921 C.ar    1  UNL1        0.0423
     34 C         138.0536  144.3937  163.7828 C.3     1  UNL1        0.1110
     35 N         138.5007  144.4830  162.3538 N.am    1  UNL1       -0.2979
     36 C         139.8789  144.9779  162.0286 C.2     1  UNL1        0.2654
     37 O         140.8099  145.3835  163.1325 O.2     1  UNL1       -0.2684
     38 H         137.8896  144.2167  161.6293 H       1  UNL1        0.1498
@<TRIPOS>BOND
     1    34    35    1
     2    35    36   am
     3    36    37    2
     4    36    24    1
     5    24    25   ar
     6    25    26   ar
     7    26    27    1
     8    26    28   ar
     9    28    29   ar
    10    29    30   ar
    11    30    31   ar
    12    31    22    1
    13    22     1    1
    14     1     2   ar
    15     2     3   ar
    16     3     4   ar
    17     4     5   ar
    18     5     7    1
    19     7     8   ar
    20     8     9   ar
    21     9    13    1
    22    15    13    1
    23    15    16    1
    24    16    17    1
    25    17    18    1
    26    18    19    1
    27    19    20    1
    28     9    10   ar
    29    10    11    1
    30    10    12   ar
    31     5     6   ar
    32    31    32   ar
    33    32    33   ar
    34    33    24   ar
    35    33    28   ar
    36     6     1   ar
    37    12     7   ar
    38    20    15    1
    39    35    38    1
    40    22    23    1
    41    13    14    1
    42    19    21    1
@<TRIPOS>MOLECULE
*****
 38 42 0 0 0
SMALL
GASTEIGER

@<TRIPOS>ATOM
      1 C         143.7413  139.8148  158.7618 C.ar    1  UNL1        0.2221
      2 N         144.6092  140.2699  157.6262 N.ar    1  UNL1       -0.2119
      3 C         145.0992  141.6869  157.5780 C.ar    1  UNL1        0.1050
      4 C         144.7213  142.6486  158.6653 C.ar    1  UNL1        0.0596
      5 C         143.8534  142.1934  159.8009 C.ar    1  UNL1        0.1683
      6 N         143.3634  140.7766  159.8491 N.ar    1  UNL1       -0.1944
      7 N         143.4755  143.1551  160.8882 N.ar    1  UNL1       -0.2096
      8 C         142.1932  143.9285  160.9748 C.ar    1  UNL1        0.1175
      9 C         142.2387  144.7637  162.2199 C.ar    1  UNL1        0.0796
     10 C         143.5493  144.5064  162.9029 C.ar    1  UNL1        0.0939
     11 C         144.0138  145.1332  164.1840 C.3     1  UNL1        0.0553
     12 N         144.3136  143.5123  162.0798 N.ar    1  UNL1       -0.1668
     13 N         141.1627  145.6929  162.6982 N.pl3   1  UNL1       -0.3307
     14 H         141.3055  146.6666  162.6714 H       1  UNL1        0.1469
     15 C         139.8691  145.1386  163.2171 C.3     1  UNL1        0.0850
     16 C         139.6943  144.8928  164.6866 C.3     1  UNL1        0.0223
     17 C         138.4007  144.3384  165.2056 C.3     1  UNL1        0.0188
     18 C         137.2819  144.0300  164.2552 C.3     1  UNL1        0.0687
     19 N         137.4568  144.2758  162.7858 N.3     1  UNL1       -0.2961
     20 C         138.7504  144.8301  162.2668 C.3     1  UNL1        0.0883
     21 H         136.7239  144.9283  162.5071 H       1  UNL1        0.1233
     22 N         143.2512  138.3979  158.8101 N.pl3   1  UNL1       -0.2825
     23 H         143.3426  137.8734  159.6382 H       1  UNL1        0.1551
     24 C         142.2532  134.3156  155.5295 C.ar    1  UNL1        0.1554
     25 N         141.4266  134.2883  154.2781 N.ar    1  UNL1       -0.1646
     26 N         140.8767  135.6661  154.0557 N.ar    1  UNL1       -0.2487
     27 C         139.9949  136.0906  152.9190 C.3     1  UNL1        0.1537
     28 C         141.3635  136.5449  155.1697 C.ar    1  UNL1        0.0796
     29 C         141.1420  137.9972  155.4723 C.ar    1  UNL1        0.0201
     30 C         141.7713  138.6149  156.6857 C.ar    1  UNL1        0.0162
     31 C         142.6220  137.7802  157.5966 C.ar    1  UNL1        0.0506
     32 C         142.8435  136.3279  157.2939 C.ar    1  UNL1        0.0179
     33 C         142.2142  135.7102  156.0805 C.ar    1  UNL1        0.0423
     34 C         145.2258  131.9684  156.7148 C.3     1  UNL1        0.1110
     35 N         144.4894  133.1316  156.1190 N.am    1  UNL1       -0.2979
     36 C         142.9895  133.1525  156.1253 C.2     1  UNL1        0.2654
     37 O         142.2261  132.0103  156.7273 O.2     1  UNL1       -0.2684
     38 H         144.9906  133.8812  155.7239 H       1  UNL1        0.1498
@<TRIPOS>BOND
     1    34    35    1
     2    35    36   am
     3    36    37    2
     4    36    24    1
     5    24    25   ar
     6    25    26   ar
     7    26    27    1
     8    26    28   ar
     9    28    29   ar
    10    29    30   ar
    11    30    31   ar
    12    31    22    1
    13    22     1    1
    14     1     2   ar
    15     2     3   ar
    16     3     4   ar
    17     4     5   ar
    18     5     7    1
    19     7     8   ar
    20     8     9   ar
    21     9    13    1
    22    15    13    1
    23    15    16    1
    24    16    17    1
    25    17    18    1
    26    18    19    1
    27    19    20    1
    28     9    10   ar
    29    10    11    1
    30    10    12   ar
    31     5     6   ar
    32    31    32   ar
    33    32    33   ar
    34    33    24   ar
    35    33    28   ar
    36     6     1   ar
    37    12     7   ar
    38    20    15    1
    39    35    38    1
    40    22    23    1
    41    13    14    1
    42    19    21    1
@<TRIPOS>MOLECULE
*****
 38 42 0 0 0
SMALL
GASTEIGER

@<TRIPOS>ATOM
      1 C         138.8231  143.3586  161.5297 C.ar    1  UNL1        0.2221
      2 N         138.7542  144.8008  161.9364 N.ar    1  UNL1       -0.2119
      3 C         138.7320  145.1699  163.3901 C.ar    1  UNL1        0.1050
      4 C         138.7787  144.0968  164.4372 C.ar    1  UNL1        0.0596
      5 C         138.8475  142.6547  164.0306 C.ar    1  UNL1        0.1683
      6 N         138.8697  142.2855  162.5769 N.ar    1  UNL1       -0.1944
      7 N         138.8941  141.5816  165.0776 N.ar    1  UNL1       -0.2096
      8 C         139.7346  141.5979  166.3200 C.ar    1  UNL1        0.1175
      9 C         139.4684  140.3302  167.0763 C.ar    1  UNL1        0.0796
     10 C         138.4634  139.5305  166.3014 C.ar    1  UNL1        0.0939
     11 C         137.9104  138.1922  166.6930 C.3     1  UNL1        0.0553
     12 N         138.1085  140.3039  165.0661 N.ar    1  UNL1       -0.1668
     13 N         140.0968  139.9322  168.3789 N.pl3   1  UNL1       -0.3307
     14 H         139.9168  139.0428  168.7608 H       1  UNL1        0.1469
     15 C         140.9993  140.8892  169.0996 C.3     1  UNL1        0.0850
     16 C         142.4028  141.1054  168.6160 C.3     1  UNL1        0.0223
     17 C         143.3053  142.0624  169.3367 C.3     1  UNL1        0.0188
     18 C         142.8045  142.8033  170.5410 C.3     1  UNL1        0.0687
     19 N         141.4011  142.5871  171.0246 N.3     1  UNL1       -0.2961
     20 C         140.4985  141.6301  170.3039 C.3     1  UNL1        0.0883
     21 H         140.9401  143.4968  171.0068 H       1  UNL1        0.1233
     22 N         138.8453  142.9894  160.0761 N.pl3   1  UNL1       -0.2825
     23 H         138.0002  142.8474  159.5913 H       1  UNL1        0.1551
     24 C         144.1652  142.6807  159.9140 C.ar    1  UNL1        0.1554
     25 N         145.0661  142.4967  158.7288 N.ar    1  UNL1       -0.1646
     26 N         144.2064  142.4041  157.5031 N.ar    1  UNL1       -0.2487
     27 C         144.6934  142.2175  156.0967 C.3     1  UNL1        0.1537
     28 C         142.7743  142.5309  157.9307 C.ar    1  UNL1        0.0796
     29 C         141.4901  142.5128  157.1558 C.ar    1  UNL1        0.0201
     30 C         140.1805  142.6657  157.8710 C.ar    1  UNL1        0.0162
     31 C         140.1550  142.8366  159.3610 C.ar    1  UNL1        0.0506
     32 C         141.4392  142.8547  160.1359 C.ar    1  UNL1        0.0179
     33 C         142.7488  142.7018  159.4207 C.ar    1  UNL1        0.0423
     34 C         145.6150  141.7769  163.4961 C.3     1  UNL1        0.1110
     35 N         145.1765  141.6384  162.0684 N.am    1  UNL1       -0.2979
     36 C         144.6038  142.8192  161.3417 C.2     1  UNL1        0.2654
     37 O         144.4697  144.1383  162.0429 O.2     1  UNL1       -0.2684
     38 H         145.2645  140.7725  161.6082 H       1  UNL1        0.1498
@<TRIPOS>BOND
     1    34    35    1
     2    35    36   am
     3    36    37    2
     4    36    24    1
     5    24    25   ar
     6    25    26   ar
     7    26    27    1
     8    26    28   ar
     9    28    29   ar
    10    29    30   ar
    11    30    31   ar
    12    31    22    1
    13    22     1    1
    14     1     2   ar
    15     2     3   ar
    16     3     4   ar
    17     4     5   ar
    18     5     7    1
    19     7     8   ar
    20     8     9   ar
    21     9    13    1
    22    15    13    1
    23    15    16    1
    24    16    17    1
    25    17    18    1
    26    18    19    1
    27    19    20    1
    28     9    10   ar
    29    10    11    1
    30    10    12   ar
    31     5     6   ar
    32    31    32   ar
    33    32    33   ar
    34    33    24   ar
    35    33    28   ar
    36     6     1   ar
    37    12     7   ar
    38    20    15    1
    39    35    38    1
    40    22    23    1
    41    13    14    1
    42    19    21    1
@<TRIPOS>MOLECULE
*****
 38 42 0 0 0
SMALL
GASTEIGER

@<TRIPOS>ATOM
      1 C         138.9477  138.3426  161.9433 C.ar    1  UNL1        0.2221
      2 N         137.7779  139.2154  161.5971 N.ar    1  UNL1       -0.2119
      3 C         137.7430  139.9359  160.2819 C.ar    1  UNL1        0.1050
      4 C         138.8778  139.7836  159.3129 C.ar    1  UNL1        0.0596
      5 C         140.0476  138.9109  159.6591 C.ar    1  UNL1        0.1683
      6 N         140.0826  138.1904  160.9742 N.ar    1  UNL1       -0.1944
      7 N         141.1824  138.7586  158.6901 N.ar    1  UNL1       -0.2096
      8 C         141.7098  137.4639  158.1464 C.ar    1  UNL1        0.1175
      9 C         142.8425  137.7793  157.2150 C.ar    1  UNL1        0.0796
     10 C         143.0150  139.2691  157.1830 C.ar    1  UNL1        0.0939
     11 C         144.0346  140.0215  156.3803 C.3     1  UNL1        0.0553
     12 N         141.9891  139.8742  158.0947 N.ar    1  UNL1       -0.1668
     13 N         143.6591  136.7805  156.4499 N.pl3   1  UNL1       -0.3307
     14 H         144.4912  137.0622  156.0053 H       1  UNL1        0.1469
     15 C         143.2080  135.3527  156.3620 C.3     1  UNL1        0.0850
     16 C         142.5084  134.8616  155.1293 C.3     1  UNL1        0.0223
     17 C         142.0573  133.4338  155.0414 C.3     1  UNL1        0.0188
     18 C         142.3058  132.4969  156.1862 C.3     1  UNL1        0.0687
     19 N         143.0054  132.9879  157.4189 N.3     1  UNL1       -0.2961
     20 C         143.4565  134.4158  157.5068 C.3     1  UNL1        0.0883
     21 H         143.8368  132.4088  157.5361 H       1  UNL1        0.1233
     22 N         138.9827  137.6221  163.2584 N.pl3   1  UNL1       -0.2825
     23 H         138.8226  136.6513  163.2922 H       1  UNL1        0.1551
     24 C         141.9495  140.8128  166.3312 C.ar    1  UNL1        0.1554
     25 N         141.6777  141.3070  167.7211 N.ar    1  UNL1       -0.1646
     26 N         140.3612  140.7416  168.1649 N.ar    1  UNL1       -0.2487
     27 C         139.7022  140.9783  169.4914 C.3     1  UNL1        0.1537
     28 C         139.8192  139.8979  167.0493 C.ar    1  UNL1        0.0796
     29 C         138.5588  139.0954  166.9190 C.ar    1  UNL1        0.0201
     30 C         138.2799  138.3368  165.6554 C.ar    1  UNL1        0.0162
     31 C         139.2616  138.3808  164.5221 C.ar    1  UNL1        0.0506
     32 C         140.5221  139.1833  164.6524 C.ar    1  UNL1        0.0179
     33 C         140.8009  139.9419  165.9160 C.ar    1  UNL1        0.0423
     34 C         145.2002  140.3445  164.1031 C.3     1  UNL1        0.1110
     35 N         143.9919  140.0242  164.9323 N.am    1  UNL1       -0.2979
     36 C         143.1577  141.1331  165.5020 C.2     1  UNL1        0.2654
     37 O         143.5318  142.5623  165.2424 O.2     1  UNL1       -0.2684
     38 H         143.7465  139.0861  165.1027 H       1  UNL1        0.1498
@<TRIPOS>BOND
     1    34    35    1
     2    35    36   am
     3    36    37    2
     4    36    24    1
     5    24    25   ar
     6    25    26   ar
     7    26    27    1
     8    26    28   ar
     9    28    29   ar
    10    29    30   ar
    11    30    31   ar
    12    31    22    1
    13    22     1    1
    14     1     2   ar
    15     2     3   ar
    16     3     4   ar
    17     4     5   ar
    18     5     7    1
    19     7     8   ar
    20     8     9   ar
    21     9    13    1
    22    15    13    1
    23    15    16    1
    24    16    17    1
    25    17    18    1
    26    18    19    1
    27    19    20    1
    28     9    10   ar
    29    10    11    1
    30    10    12   ar
    31     5     6   ar
    32    31    32   ar
    33    32    33   ar
    34    33    24   ar
    35    33    28   ar
    36     6     1   ar
    37    12     7   ar
    38    20    15    1
    39    35    38    1
    40    22    23    1
    41    13    14    1
    42    19    21    1
@<TRIPOS>MOLECULE
*****
 38 42 0 0 0
SMALL
GASTEIGER

@<TRIPOS>ATOM
      1 C         138.3113  139.9546  160.3442 C.ar    1  UNL1        0.2221
      2 N         137.5340  140.0147  159.0628 N.ar    1  UNL1       -0.2119
      3 C         138.1844  140.5336  157.8146 C.ar    1  UNL1        0.1050
      4 C         139.6121  140.9924  157.8480 C.ar    1  UNL1        0.0596
      5 C         140.3894  140.9323  159.1294 C.ar    1  UNL1        0.1683
      6 N         139.7391  140.4134  160.3775 N.ar    1  UNL1       -0.1944
      7 N         141.8171  141.3910  159.1628 N.ar    1  UNL1       -0.2096
      8 C         142.5818  141.8053  160.3849 C.ar    1  UNL1        0.1175
      9 C         143.9681  142.1864  159.9573 C.ar    1  UNL1        0.0796
     10 C         144.0602  142.0076  158.4708 C.ar    1  UNL1        0.0939
     11 C         145.2695  142.2737  157.6241 C.3     1  UNL1        0.0553
     12 N         142.7309  141.5161  157.9798 N.ar    1  UNL1       -0.1668
     13 N         145.0690  142.6626  160.8580 N.pl3   1  UNL1       -0.3307
     14 H         145.9885  142.7375  160.5143 H       1  UNL1        0.1469
     15 C         144.7689  143.0247  162.2824 C.3     1  UNL1        0.0850
     16 C         145.1765  142.1020  163.3927 C.3     1  UNL1        0.0223
     17 C         144.8764  142.4641  164.8171 C.3     1  UNL1        0.0188
     18 C         144.1688  143.7489  165.1312 C.3     1  UNL1        0.0687
     19 N         143.7613  144.6716  164.0209 N.3     1  UNL1       -0.2961
     20 C         144.0614  144.3095  162.5966 C.3     1  UNL1        0.0883
     21 H         144.2171  145.5665  164.1995 H       1  UNL1        0.1233
     22 N         137.6610  139.4357  161.5923 N.pl3   1  UNL1       -0.2825
     23 H         136.8346  138.9039  161.5322 H       1  UNL1        0.1551
     24 C         139.7205  142.7011  165.2692 C.ar    1  UNL1        0.1554
     25 N         140.2435  142.3752  166.6368 N.ar    1  UNL1       -0.1646
     26 N         140.0992  140.8972  166.8481 N.ar    1  UNL1       -0.2487
     27 C         140.4972  140.1398  168.0801 C.3     1  UNL1        0.1537
     28 C         139.4870  140.3096  165.6112 C.ar    1  UNL1        0.0796
     29 C         139.1124  138.9035  165.2475 C.ar    1  UNL1        0.0201
     30 C         138.5037  138.6122  163.9078 C.ar    1  UNL1        0.0162
     31 C         138.2697  139.7271  162.9320 C.ar    1  UNL1        0.0506
     32 C         138.6442  141.1332  163.2958 C.ar    1  UNL1        0.0179
     33 C         139.2529  141.4245  164.6354 C.ar    1  UNL1        0.0423
     34 C         140.4495  145.7233  162.8024 C.3     1  UNL1        0.1110
     35 N         140.4967  144.3601  163.4266 N.am    1  UNL1       -0.2979
     36 C         139.6733  144.0642  164.6450 C.2     1  UNL1        0.2654
     37 O         138.8027  145.1315  165.2391 O.2     1  UNL1       -0.2684
     38 H         141.0682  143.6597  163.0366 H       1  UNL1        0.1498
@<TRIPOS>BOND
     1    34    35    1
     2    35    36   am
     3    36    37    2
     4    36    24    1
     5    24    25   ar
     6    25    26   ar
     7    26    27    1
     8    26    28   ar
     9    28    29   ar
    10    29    30   ar
    11    30    31   ar
    12    31    22    1
    13    22     1    1
    14     1     2   ar
    15     2     3   ar
    16     3     4   ar
    17     4     5   ar
    18     5     7    1
    19     7     8   ar
    20     8     9   ar
    21     9    13    1
    22    15    13    1
    23    15    16    1
    24    16    17    1
    25    17    18    1
    26    18    19    1
    27    19    20    1
    28     9    10   ar
    29    10    11    1
    30    10    12   ar
    31     5     6   ar
    32    31    32   ar
    33    32    33   ar
    34    33    24   ar
    35    33    28   ar
    36     6     1   ar
    37    12     7   ar
    38    20    15    1
    39    35    38    1
    40    22    23    1
    41    13    14    1
    42    19    21    1
@<TRIPOS>MOLECULE
*****
 38 42 0 0 0
SMALL
GASTEIGER

@<TRIPOS>ATOM
      1 C         142.5509  143.9847  157.8956 C.ar    1  UNL1        0.2221
      2 N         142.2336  145.2670  157.1849 N.ar    1  UNL1       -0.2119
      3 C         141.0287  146.0669  157.5830 C.ar    1  UNL1        0.1050
      4 C         140.1411  145.5845  158.6918 C.ar    1  UNL1        0.0596
      5 C         140.4584  144.3022  159.4025 C.ar    1  UNL1        0.1683
      6 N         141.6632  143.5023  159.0044 N.ar    1  UNL1       -0.1944
      7 N         139.5708  143.8198  160.5112 N.ar    1  UNL1       -0.2096
      8 C         138.8609  142.4993  160.5612 C.ar    1  UNL1        0.1175
      9 C         138.0886  142.4365  161.8456 C.ar    1  UNL1        0.0796
     10 C         138.3213  143.7182  162.5894 C.ar    1  UNL1        0.0939
     11 C         137.7399  144.0813  163.9237 C.3     1  UNL1        0.0553
     12 N         139.2373  144.5731  161.7647 N.ar    1  UNL1       -0.1668
     13 N         137.2338  141.2929  162.3054 N.pl3   1  UNL1       -0.3307
     14 H         136.2531  141.3568  162.2469 H       1  UNL1        0.1469
     15 C         137.8732  140.0520  162.8544 C.3     1  UNL1        0.0850
     16 C         138.3432  140.0177  164.2786 C.3     1  UNL1        0.0223
     17 C         138.9826  138.7768  164.8276 C.3     1  UNL1        0.0188
     18 C         139.1519  137.5703  163.9526 C.3     1  UNL1        0.0687
     19 N         138.6819  137.6047  162.5284 N.3     1  UNL1       -0.2961
     20 C         138.0426  138.8456  161.9794 C.3     1  UNL1        0.0883
     21 H         138.0012  136.8521  162.4248 H       1  UNL1        0.1233
     22 N         143.7558  143.1849  157.4975 N.pl3   1  UNL1       -0.2825
     23 H         144.6377  143.6186  157.4406 H       1  UNL1        0.1551
     24 C         142.9133  138.0961  158.8459 C.ar    1  UNL1        0.1554
     25 N         142.8881  136.8778  157.9713 N.ar    1  UNL1       -0.1646
     26 N         143.1513  137.3145  156.5606 N.ar    1  UNL1       -0.2487
     27 C         143.2154  136.4200  155.3582 C.3     1  UNL1        0.1537
     28 C         143.3391  138.8027  156.5634 C.ar    1  UNL1        0.0796
     29 C         143.6251  139.7803  155.4623 C.ar    1  UNL1        0.0201
     30 C         143.7640  141.2410  155.7737 C.ar    1  UNL1        0.0162
     31 C         143.6169  141.7241  157.1862 C.ar    1  UNL1        0.0506
     32 C         143.3309  140.7464  158.2872 C.ar    1  UNL1        0.0179
     33 C         143.1921  139.2857  157.9759 C.ar    1  UNL1        0.0423
     34 C         143.5867  138.5916  162.7256 C.3     1  UNL1        0.1110
     35 N         143.8024  138.5671  161.2414 N.am    1  UNL1       -0.2979
     36 C         142.6976  138.1205  160.3302 C.2     1  UNL1        0.2654
     37 O         141.3774  137.6983  160.9033 O.2     1  UNL1       -0.2684
     38 H         144.6690  138.8442  160.8652 H       1  UNL1        0.1498
@<TRIPOS>BOND
     1    34    35    1
     2    35    36   am
     3    36    37    2
     4    36    24    1
     5    24    25   ar
     6    25    26   ar
     7    26    27    1
     8    26    28   ar
     9    28    29   ar
    10    29    30   ar
    11    30    31   ar
    12    31    22    1
    13    22     1    1
    14     1     2   ar
    15     2     3   ar
    16     3     4   ar
    17     4     5   ar
    18     5     7    1
    19     7     8   ar
    20     8     9   ar
    21     9    13    1
    22    15    13    1
    23    15    16    1
    24    16    17    1
    25    17    18    1
    26    18    19    1
    27    19    20    1
    28     9    10   ar
    29    10    11    1
    30    10    12   ar
    31     5     6   ar
    32    31    32   ar
    33    32    33   ar
    34    33    24   ar
    35    33    28   ar
    36     6     1   ar
    37    12     7   ar
    38    20    15    1
    39    35    38    1
    40    22    23    1
    41    13    14    1
    42    19    21    1
@<TRIPOS>MOLECULE
*****
 38 42 0 0 0
SMALL
GASTEIGER

@<TRIPOS>ATOM
      1 C         142.5099  138.3734  160.6919 C.ar    1  UNL1        0.2221
      2 N         143.0115  137.7400  159.4281 N.ar    1  UNL1       -0.2119
      3 C         142.9199  138.4840  158.1288 C.ar    1  UNL1        0.1050
      4 C         142.3267  139.8612  158.0933 C.ar    1  UNL1        0.0596
      5 C         141.8251  140.4946  159.3572 C.ar    1  UNL1        0.1683
      6 N         141.9167  139.7507  160.6565 N.ar    1  UNL1       -0.1944
      7 N         141.2320  141.8718  159.3217 N.ar    1  UNL1       -0.2096
      8 C         140.6955  142.6313  160.4987 C.ar    1  UNL1        0.1175
      9 C         140.2031  143.9603  160.0075 C.ar    1  UNL1        0.0796
     10 C         140.4353  144.0222  158.5268 C.ar    1  UNL1        0.0939
     11 C         140.0919  145.1728  157.6279 C.3     1  UNL1        0.0553
     12 N         141.0712  142.7314  158.1031 N.ar    1  UNL1       -0.1668
     13 N         139.5867  145.0382  160.8491 N.pl3   1  UNL1       -0.3307
     14 H         139.3459  145.9023  160.4434 H       1  UNL1        0.1469
     15 C         139.3373  144.7995  162.3089 C.3     1  UNL1        0.0850
     16 C         140.4536  144.9640  163.2972 C.3     1  UNL1        0.0223
     17 C         140.2042  144.7253  164.7570 C.3     1  UNL1        0.0188
     18 C         138.8384  144.3222  165.2284 C.3     1  UNL1        0.0687
     19 N         137.7221  144.1577  164.2400 N.3     1  UNL1       -0.2961
     20 C         137.9715  144.3964  162.7802 C.3     1  UNL1        0.0883
     21 H         136.9824  144.8013  164.5214 H       1  UNL1        0.1233
     22 N         142.6015  137.6295  161.9912 N.pl3   1  UNL1       -0.2825
     23 H         143.2751  136.9208  162.1063 H       1  UNL1        0.1551
     24 C         141.1962  140.3568  166.3513 C.ar    1  UNL1        0.1554
     25 N         139.9487  140.2433  167.1765 N.ar    1  UNL1       -0.1646
     26 N         139.0842  139.1804  166.5659 N.ar    1  UNL1       -0.2487
     27 C         137.7421  138.7385  167.0694 C.3     1  UNL1        0.1537
     28 C         139.7973  138.6370  165.3633 C.ar    1  UNL1        0.0796
     29 C         139.4267  137.5742  164.3719 C.ar    1  UNL1        0.0201
     30 C         140.3614  137.2383  163.2479 C.ar    1  UNL1        0.0162
     31 C         141.6667  137.9654  163.1153 C.ar    1  UNL1        0.0506
     32 C         142.0373  139.0282  164.1067 C.ar    1  UNL1        0.0179
     33 C         141.1026  139.3641  165.2307 C.ar    1  UNL1        0.0423
     34 C         144.0025  143.0956  165.7400 C.3     1  UNL1        0.1110
     35 N         142.8617  142.1546  165.4888 N.am    1  UNL1       -0.2979
     36 C         142.3369  141.2978  166.6026 C.2     1  UNL1        0.2654
     37 O         142.9530  141.3821  167.9676 O.2     1  UNL1       -0.2684
     38 H         142.4574  142.0994  164.5928 H       1  UNL1        0.1498
@<TRIPOS>BOND
     1    34    35    1
     2    35    36   am
     3    36    37    2
     4    36    24    1
     5    24    25   ar
     6    25    26   ar
     7    26    27    1
     8    26    28   ar
     9    28    29   ar
    10    29    30   ar
    11    30    31   ar
    12    31    22    1
    13    22     1    1
    14     1     2   ar
    15     2     3   ar
    16     3     4   ar
    17     4     5   ar
    18     5     7    1
    19     7     8   ar
    20     8     9   ar
    21     9    13    1
    22    15    13    1
    23    15    16    1
    24    16    17    1
    25    17    18    1
    26    18    19    1
    27    19    20    1
    28     9    10   ar
    29    10    11    1
    30    10    12   ar
    31     5     6   ar
    32    31    32   ar
    33    32    33   ar
    34    33    24   ar
    35    33    28   ar
    36     6     1   ar
    37    12     7   ar
    38    20    15    1
    39    35    38    1
    40    22    23    1
    41    13    14    1
    42    19    21    1
@<TRIPOS>MOLECULE
*****
 38 42 0 0 0
SMALL
GASTEIGER

@<TRIPOS>ATOM
      1 C         136.8096  141.0566  156.9264 C.ar    1  UNL1        0.2221
      2 N         137.2425  142.4920  156.8808 N.ar    1  UNL1       -0.2119
      3 C         138.2372  143.0074  157.8784 C.ar    1  UNL1        0.1050
      4 C         138.7989  142.0874  158.9214 C.ar    1  UNL1        0.0596
      5 C         138.3660  140.6519  158.9669 C.ar    1  UNL1        0.1683
      6 N         137.3714  140.1365  157.9694 N.ar    1  UNL1       -0.1944
      7 N         138.9278  139.7319  160.0099 N.ar    1  UNL1       -0.2096
      8 C         140.3223  139.1801  160.0401 C.ar    1  UNL1        0.1175
      9 C         140.4500  138.3092  161.2547 C.ar    1  UNL1        0.0796
     10 C         139.1344  138.3228  161.9752 C.ar    1  UNL1        0.0939
     11 C         138.8156  137.5864  163.2425 C.3     1  UNL1        0.0553
     12 N         138.1936  139.2020  161.2059 N.ar    1  UNL1       -0.1668
     13 N         141.6777  137.5569  161.6750 N.pl3   1  UNL1       -0.3307
     14 H         141.8666  136.6697  161.2923 H       1  UNL1        0.1469
     15 C         142.6178  138.1563  162.6786 C.3     1  UNL1        0.0850
     16 C         142.2776  138.1214  164.1391 C.3     1  UNL1        0.0223
     17 C         143.2177  138.7208  165.1427 C.3     1  UNL1        0.0188
     18 C         144.4978  139.3550  164.6857 C.3     1  UNL1        0.0687
     19 N         144.8380  139.3899  163.2251 N.3     1  UNL1       -0.2961
     20 C         143.8980  138.7906  162.2216 C.3     1  UNL1        0.0883
     21 H         145.7297  138.9063  163.1189 H       1  UNL1        0.1233
     22 N         135.8149  140.5412  155.9289 N.pl3   1  UNL1       -0.2825
     23 H         136.0928  140.3700  155.0001 H       1  UNL1        0.1551
     24 C         130.5472  141.2784  155.5664 C.ar    1  UNL1        0.1554
     25 N         129.4474  140.6556  156.3741 N.ar    1  UNL1       -0.1646
     26 N         130.0739  139.7280  157.3726 N.ar    1  UNL1       -0.2487
     27 C         129.3420  138.8968  158.3842 C.3     1  UNL1        0.1537
     28 C         131.5609  139.7775  157.1820 C.ar    1  UNL1        0.0796
     29 C         132.6864  139.0739  157.8806 C.ar    1  UNL1        0.0201
     30 C         134.1043  139.3284  157.4629 C.ar    1  UNL1        0.0162
     31 C         134.3969  140.2866  156.3466 C.ar    1  UNL1        0.0506
     32 C         133.2714  140.9903  155.6479 C.ar    1  UNL1        0.0179
     33 C         131.8534  140.7357  156.0656 C.ar    1  UNL1        0.0423
     34 C         129.7145  144.6495  153.6447 C.3     1  UNL1        0.1110
     35 N         129.8900  143.6580  154.7565 N.am    1  UNL1       -0.2979
     36 C         130.3716  142.2698  154.4545 C.2     1  UNL1        0.2654
     37 O         130.6776  141.8733  153.0407 O.2     1  UNL1       -0.2684
     38 H         129.6892  143.9184  155.6845 H       1  UNL1        0.1498
@<TRIPOS>BOND
     1    34    35    1
     2    35    36   am
     3    36    37    2
     4    36    24    1
     5    24    25   ar
     6    25    26   ar
     7    26    27    1
     8    26    28   ar
     9    28    29   ar
    10    29    30   ar
    11    30    31   ar
    12    31    22    1
    13    22     1    1
    14     1     2   ar
    15     2     3   ar
    16     3     4   ar
    17     4     5   ar
    18     5     7    1
    19     7     8   ar
    20     8     9   ar
    21     9    13    1
    22    15    13    1
    23    15    16    1
    24    16    17    1
    25    17    18    1
    26    18    19    1
    27    19    20    1
    28     9    10   ar
    29    10    11    1
    30    10    12   ar
    31     5     6   ar
    32    31    32   ar
    33    32    33   ar
    34    33    24   ar
    35    33    28   ar
    36     6     1   ar
    37    12     7   ar
    38    20    15    1
    39    35    38    1
    40    22    23    1
    41    13    14    1
    42    19    21    1
