@<TRIPOS>MOLECULE
*****
 31 34 0 0 0
SMALL
GASTEIGER

@<TRIPOS>ATOM
      1 C         141.5127  141.2483  164.0360 C.ar    1  UNL1        0.0191
      2 C         140.1710  140.9557  163.4324 C.ar    1  UNL1        0.0023
      3 C         139.8636  141.4042  162.0345 C.ar    1  UNL1        0.0367
      4 C         140.8979  142.1453  161.2401 C.ar    1  UNL1        0.1385
      5 C         142.2395  142.4379  161.8437 C.ar    1  UNL1        0.0367
      6 C         142.5469  141.9894  163.2417 C.ar    1  UNL1        0.0023
      7 C         141.1613  141.9625  169.1709 C.ar    1  UNL1        0.1737
      8 C         141.4687  141.5140  170.5688 C.ar    1  UNL1        0.0401
      9 C         142.2591  140.2598  170.7974 C.ar    1  UNL1        0.0046
     10 C         142.7422  139.4541  169.6280 C.ar    1  UNL1        0.0217
     11 C         142.4348  139.9027  168.2300 C.ar    1  UNL1        0.1426
     12 C         141.6444  141.1569  168.0015 C.ar    1  UNL1        0.1895
     13 O         141.3370  141.6054  166.6035 O.3     1  UNL1       -0.4686
     14 C         141.8201  140.7998  165.4341 C.3     1  UNL1        0.2104
     15 C         142.6105  139.5456  165.6626 C.3     1  UNL1        0.1779
     16 C         143.0935  138.7399  164.4931 C.3     1  UNL1        0.0300
     17 S         142.9179  139.0970  167.0605 S.O2    1  UNL1        0.0138
     18 O         143.4582  138.2687  168.1884 O.2     1  UNL1       -0.1685
     19 O         143.5886  138.0037  166.2828 O.2     1  UNL1       -0.1685
     20 C         140.3422  144.2870  169.9928 C.3     1  UNL1        0.2526
     21 O         140.3709  143.2167  168.9424 O.3     1  UNL1       -0.4683
     22 O         140.5905  142.5938  159.8421 O.3     1  UNL1       -0.4754
     23 C         139.9658  143.9369  159.6056 C.3     1  UNL1        0.2068
     24 C         140.5837  145.1669  160.2017 C.3     1  UNL1        0.0646
     25 C         139.8630  145.9214  161.2793 C.3     1  UNL1        0.0759
     26 N         139.5121  145.2375  162.5674 N.3     1  UNL1       -0.2738
     27 C         138.1800  144.6417  162.9150 C.3     1  UNL1        0.0721
     28 C         138.2763  144.0654  164.2965 C.3     1  UNL1        0.0187
     29 C         139.6678  144.3049  164.8028 C.3     1  UNL1        0.0174
     30 C         140.4316  145.0294  163.7341 C.3     1  UNL1        0.0576
     31 C         141.8634  145.4685  163.8176 C.3     1  UNL1        0.0173
@<TRIPOS>BOND
     1    20    21    1
     2    21     7    1
     3     7     8   ar
     4     8     9   ar
     5     9    10   ar
     6    10    11   ar
     7    11    12   ar
     8    12    13    1
     9    13    14    1
    10    14     1    1
    11     1     2   ar
    12     2     3   ar
    13     3     4   ar
    14     4    22    1
    15    22    23    1
    16    23    24    1
    17    24    25    1
    18    25    26    1
    19    26    27    1
    20    27    28    1
    21    28    29    1
    22    29    30    1
    23    30    31    1
    24     4     5   ar
    25     5     6   ar
    26    14    15    1
    27    15    16    1
    28    15    17    1
    29    17    18    2
    30    17    19    2
    31    12     7   ar
    32     6     1   ar
    33    17    11    1
    34    30    26    1
@<TRIPOS>MOLECULE
*****
 31 34 0 0 0
SMALL
GASTEIGER

@<TRIPOS>ATOM
      1 C         141.4231  140.3957  164.4293 C.ar    1  UNL1        0.0191
      2 C         142.2823  139.2762  163.9208 C.ar    1  UNL1        0.0023
      3 C         142.6831  139.2351  162.4760 C.ar    1  UNL1        0.0367
      4 C         142.2248  140.3135  161.5396 C.ar    1  UNL1        0.1385
      5 C         141.3656  141.4330  162.0480 C.ar    1  UNL1        0.0367
      6 C         140.9648  141.4741  163.4929 C.ar    1  UNL1        0.0023
      7 C         142.3517  141.8983  169.3160 C.ar    1  UNL1        0.1737
      8 C         141.9508  141.9393  170.7608 C.ar    1  UNL1        0.0401
      9 C         140.6847  141.2701  171.2072 C.ar    1  UNL1        0.0046
     10 C         139.8196  140.5598  170.2087 C.ar    1  UNL1        0.0217
     11 C         140.2205  140.5188  168.7639 C.ar    1  UNL1        0.1426
     12 C         141.4865  141.1880  168.3176 C.ar    1  UNL1        0.1895
     13 O         141.8874  141.1470  166.8726 O.3     1  UNL1       -0.4686
     14 C         141.0222  140.4367  165.8742 C.3     1  UNL1        0.2104
     15 C         139.7562  139.7675  166.3205 C.3     1  UNL1        0.1779
     16 C         138.8910  139.0572  165.3220 C.3     1  UNL1        0.0300
     17 S         139.3553  139.8085  167.7654 S.O2    1  UNL1        0.0138
     18 O         138.5577  139.5746  169.0141 O.2     1  UNL1       -0.1685
     19 O         138.2131  139.0170  167.2005 O.2     1  UNL1       -0.1685
     20 C         144.6813  142.9051  169.8720 C.3     1  UNL1        0.2526
     21 O         143.6177  142.5676  168.8696 O.3     1  UNL1       -0.4683
     22 O         142.6257  140.2725  160.0947 O.3     1  UNL1       -0.4754
     23 C         143.8668  140.9817  159.6403 C.3     1  UNL1        0.2068
     24 C         144.1085  142.4052  160.0466 C.3     1  UNL1        0.0646
     25 C         145.0758  142.7164  161.1500 C.3     1  UNL1        0.0759
     26 N         144.5668  143.1229  162.5011 N.3     1  UNL1       -0.2738
     27 C         143.7422  144.3390  162.8034 C.3     1  UNL1        0.0721
     28 C         143.4588  144.3525  164.2763 C.3     1  UNL1        0.0187
     29 C         144.1082  143.1447  164.8844 C.3     1  UNL1        0.0174
     30 C         144.7930  142.3848  163.7872 C.3     1  UNL1        0.0576
     31 C         145.5679  141.1106  163.9480 C.3     1  UNL1        0.0173
@<TRIPOS>BOND
     1    20    21    1
     2    21     7    1
     3     7     8   ar
     4     8     9   ar
     5     9    10   ar
     6    10    11   ar
     7    11    12   ar
     8    12    13    1
     9    13    14    1
    10    14     1    1
    11     1     2   ar
    12     2     3   ar
    13     3     4   ar
    14     4    22    1
    15    22    23    1
    16    23    24    1
    17    24    25    1
    18    25    26    1
    19    26    27    1
    20    27    28    1
    21    28    29    1
    22    29    30    1
    23    30    31    1
    24     4     5   ar
    25     5     6   ar
    26    14    15    1
    27    15    16    1
    28    15    17    1
    29    17    18    2
    30    17    19    2
    31    12     7   ar
    32     6     1   ar
    33    17    11    1
    34    30    26    1
@<TRIPOS>MOLECULE
*****
 31 34 0 0 0
SMALL
GASTEIGER

@<TRIPOS>ATOM
      1 C         139.7820  139.3513  164.8404 C.ar    1  UNL1        0.0191
      2 C         138.9725  140.1596  163.8703 C.ar    1  UNL1        0.0023
      3 C         138.7591  139.6599  162.4723 C.ar    1  UNL1        0.0367
      4 C         139.3553  138.3517  162.0443 C.ar    1  UNL1        0.1385
      5 C         140.1649  137.5433  163.0144 C.ar    1  UNL1        0.0367
      6 C         140.3783  138.0431  164.4124 C.ar    1  UNL1        0.0023
      7 C         142.6048  142.0387  168.2770 C.ar    1  UNL1        0.1737
      8 C         142.8181  142.5385  169.6751 C.ar    1  UNL1        0.0401
      9 C         141.8334  142.1944  170.7530 C.ar    1  UNL1        0.0046
     10 C         140.6354  141.3505  170.4328 C.ar    1  UNL1        0.0217
     11 C         140.4221  140.8507  169.0348 C.ar    1  UNL1        0.1426
     12 C         141.4068  141.1948  167.9568 C.ar    1  UNL1        0.1895
     13 O         141.1934  140.6950  166.5587 O.3     1  UNL1       -0.4686
     14 C         139.9954  139.8511  166.2386 C.3     1  UNL1        0.2104
     15 C         139.0107  139.5070  167.3165 C.3     1  UNL1        0.1779
     16 C         137.8126  138.6631  166.9963 C.3     1  UNL1        0.0300
     17 S         139.2240  140.0068  168.7146 S.O2    1  UNL1        0.0138
     18 O         138.9934  140.2419  170.1780 O.2     1  UNL1       -0.1685
     19 O         137.9458  139.2445  168.9026 O.2     1  UNL1       -0.1685
     20 C         143.1128  142.9946  165.9152 C.3     1  UNL1        0.2526
     21 O         143.5895  142.3828  167.1991 O.3     1  UNL1       -0.4683
     22 O         139.1419  137.8519  160.6461 O.3     1  UNL1       -0.4754
     23 C         139.6725  138.6336  159.4811 C.3     1  UNL1        0.2068
     24 C         141.0974  138.4583  159.0467 C.3     1  UNL1        0.0646
     25 C         142.0983  139.5462  159.3008 C.3     1  UNL1        0.0759
     26 N         142.2634  140.1055  160.6828 N.3     1  UNL1       -0.2738
     27 C         141.7155  141.4117  161.1766 C.3     1  UNL1        0.0721
     28 C         142.1190  141.5704  162.6126 C.3     1  UNL1        0.0187
     29 C         142.9162  140.3623  163.0063 C.3     1  UNL1        0.0174
     30 C         143.0055  139.4570  161.8136 C.3     1  UNL1        0.0576
     31 C         143.7127  138.1352  161.7609 C.3     1  UNL1        0.0173
@<TRIPOS>BOND
     1    20    21    1
     2    21     7    1
     3     7     8   ar
     4     8     9   ar
     5     9    10   ar
     6    10    11   ar
     7    11    12   ar
     8    12    13    1
     9    13    14    1
    10    14     1    1
    11     1     2   ar
    12     2     3   ar
    13     3     4   ar
    14     4    22    1
    15    22    23    1
    16    23    24    1
    17    24    25    1
    18    25    26    1
    19    26    27    1
    20    27    28    1
    21    28    29    1
    22    29    30    1
    23    30    31    1
    24     4     5   ar
    25     5     6   ar
    26    14    15    1
    27    15    16    1
    28    15    17    1
    29    17    18    2
    30    17    19    2
    31    12     7   ar
    32     6     1   ar
    33    17    11    1
    34    30    26    1
@<TRIPOS>MOLECULE
*****
 31 34 0 0 0
SMALL
GASTEIGER

@<TRIPOS>ATOM
      1 C         139.2276  139.6061  159.9229 C.ar    1  UNL1        0.0191
      2 C         138.6121  138.8316  161.0504 C.ar    1  UNL1        0.0023
      3 C         137.8495  139.5488  162.1246 C.ar    1  UNL1        0.0367
      4 C         137.7024  141.0406  162.0713 C.ar    1  UNL1        0.1385
      5 C         138.3179  141.8151  160.9438 C.ar    1  UNL1        0.0367
      6 C         139.0805  141.0979  159.8696 C.ar    1  UNL1        0.0023
      7 C         139.3029  137.0477  155.4008 C.ar    1  UNL1        0.1737
      8 C         140.0656  136.3304  154.3267 C.ar    1  UNL1        0.0401
      9 C         141.5532  136.1750  154.4394 C.ar    1  UNL1        0.0046
     10 C         142.2782  136.7369  155.6262 C.ar    1  UNL1        0.0217
     11 C         141.5156  137.4542  156.7003 C.ar    1  UNL1        0.1426
     12 C         140.0279  137.6096  156.5876 C.ar    1  UNL1        0.1895
     13 O         139.2653  138.3269  157.6619 O.3     1  UNL1       -0.4686
     14 C         139.9903  138.8888  158.8487 C.3     1  UNL1        0.2104
     15 C         141.4779  138.7334  158.9614 C.3     1  UNL1        0.1779
     16 C         142.2030  139.2953  160.1483 C.3     1  UNL1        0.0300
     17 S         142.2406  138.0161  157.8873 S.O2    1  UNL1        0.0138
     18 O         143.3942  137.4223  157.1345 O.2     1  UNL1       -0.1685
     19 O         143.3663  138.3718  158.8127 O.2     1  UNL1       -0.1685
     20 C         137.2145  137.7896  154.0452 C.3     1  UNL1        0.2526
     21 O         137.8152  137.2031  155.2881 O.3     1  UNL1       -0.4683
     22 O         136.9397  141.7579  163.1455 O.3     1  UNL1       -0.4754
     23 C         137.6770  142.4768  164.2362 C.3     1  UNL1        0.2068
     24 C         139.1642  142.3265  164.3614 C.3     1  UNL1        0.0646
     25 C         139.7397  141.3700  165.3633 C.3     1  UNL1        0.0759
     26 N         139.9289  139.9271  164.9999 N.3     1  UNL1       -0.2738
     27 C         140.9700  139.3817  164.0678 C.3     1  UNL1        0.0721
     28 C         140.7947  137.8937  163.9967 C.3     1  UNL1        0.0187
     29 C         139.6453  137.5193  164.8848 C.3     1  UNL1        0.0174
     30 C         139.1102  138.7761  165.5049 C.3     1  UNL1        0.0576
     31 C         137.9586  138.8660  166.4618 C.3     1  UNL1        0.0173
@<TRIPOS>BOND
     1    20    21    1
     2    21     7    1
     3     7     8   ar
     4     8     9   ar
     5     9    10   ar
     6    10    11   ar
     7    11    12   ar
     8    12    13    1
     9    13    14    1
    10    14     1    1
    11     1     2   ar
    12     2     3   ar
    13     3     4   ar
    14     4    22    1
    15    22    23    1
    16    23    24    1
    17    24    25    1
    18    25    26    1
    19    26    27    1
    20    27    28    1
    21    28    29    1
    22    29    30    1
    23    30    31    1
    24     4     5   ar
    25     5     6   ar
    26    14    15    1
    27    15    16    1
    28    15    17    1
    29    17    18    2
    30    17    19    2
    31    12     7   ar
    32     6     1   ar
    33    17    11    1
    34    30    26    1
@<TRIPOS>MOLECULE
*****
 31 34 0 0 0
SMALL
GASTEIGER

@<TRIPOS>ATOM
      1 C         139.6430  141.2323  163.9780 C.ar    1  UNL1        0.0191
      2 C         138.5901  142.2458  163.6398 C.ar    1  UNL1        0.0023
      3 C         138.1169  142.3918  162.2240 C.ar    1  UNL1        0.0367
      4 C         138.6965  141.5243  161.1463 C.ar    1  UNL1        0.1385
      5 C         139.7494  140.5109  161.4844 C.ar    1  UNL1        0.0367
      6 C         140.2226  140.3649  162.9003 C.ar    1  UNL1        0.0023
      7 C         143.0877  142.3374  167.7080 C.ar    1  UNL1        0.1737
      8 C         143.5609  142.1914  169.1239 C.ar    1  UNL1        0.0401
      9 C         142.7849  141.3469  170.0907 C.ar    1  UNL1        0.0046
     10 C         141.5358  140.6484  169.6416 C.ar    1  UNL1        0.0217
     11 C         141.0626  140.7944  168.2258 C.ar    1  UNL1        0.1426
     12 C         141.8386  141.6389  167.2590 C.ar    1  UNL1        0.1895
     13 O         141.3654  141.7848  165.8430 O.3     1  UNL1       -0.4686
     14 C         140.1162  141.0863  165.3939 C.3     1  UNL1        0.2104
     15 C         139.3403  140.2419  166.3607 C.3     1  UNL1        0.1779
     16 C         138.0910  139.5434  165.9116 C.3     1  UNL1        0.0300
     17 S         139.8134  140.0959  167.7766 S.O2    1  UNL1        0.0138
     18 O         139.8582  139.6540  169.2094 O.2     1  UNL1       -0.1685
     19 O         138.5798  139.2439  167.8251 O.2     1  UNL1       -0.1685
     20 C         144.2301  142.6345  165.3936 C.3     1  UNL1        0.2526
     21 O         143.8637  143.1819  166.7412 O.3     1  UNL1       -0.4683
     22 O         138.2233  141.6703  159.7303 O.3     1  UNL1       -0.4754
     23 C         138.7552  142.7798  158.8724 C.3     1  UNL1        0.2068
     24 C         140.2350  142.9986  158.7616 C.3     1  UNL1        0.0646
     25 C         140.8491  144.2580  159.2972 C.3     1  UNL1        0.0759
     26 N         140.9736  144.4607  160.7782 N.3     1  UNL1       -0.2738
     27 C         140.2151  145.4621  161.5980 C.3     1  UNL1        0.0721
     28 C         140.6512  145.3180  163.0259 C.3     1  UNL1        0.0187
     29 C         141.6792  144.2274  163.0888 C.3     1  UNL1        0.0174
     30 C         141.8785  143.6976  161.6996 C.3     1  UNL1        0.0576
     31 C         142.8177  142.5978  161.3017 C.3     1  UNL1        0.0173
@<TRIPOS>BOND
     1    20    21    1
     2    21     7    1
     3     7     8   ar
     4     8     9   ar
     5     9    10   ar
     6    10    11   ar
     7    11    12   ar
     8    12    13    1
     9    13    14    1
    10    14     1    1
    11     1     2   ar
    12     2     3   ar
    13     3     4   ar
    14     4    22    1
    15    22    23    1
    16    23    24    1
    17    24    25    1
    18    25    26    1
    19    26    27    1
    20    27    28    1
    21    28    29    1
    22    29    30    1
    23    30    31    1
    24     4     5   ar
    25     5     6   ar
    26    14    15    1
    27    15    16    1
    28    15    17    1
    29    17    18    2
    30    17    19    2
    31    12     7   ar
    32     6     1   ar
    33    17    11    1
    34    30    26    1
@<TRIPOS>MOLECULE
*****
 31 34 0 0 0
SMALL
GASTEIGER

@<TRIPOS>ATOM
      1 C         141.2163  142.6579  164.5723 C.ar    1  UNL1        0.0191
      2 C         142.6945  142.5552  164.8058 C.ar    1  UNL1        0.0023
      3 C         143.2258  142.4233  166.2023 C.ar    1  UNL1        0.0367
      4 C         142.2790  142.3941  167.3653 C.ar    1  UNL1        0.1385
      5 C         140.8008  142.4969  167.1318 C.ar    1  UNL1        0.0367
      6 C         140.2695  142.6287  165.7353 C.ar    1  UNL1        0.0023
      7 C         139.0734  140.5144  160.3517 C.ar    1  UNL1        0.1737
      8 C         138.5421  140.6464  158.9551 C.ar    1  UNL1        0.0401
      9 C         138.5510  141.9819  158.2724 C.ar    1  UNL1        0.0046
     10 C         139.0912  143.1856  158.9861 C.ar    1  UNL1        0.0217
     11 C         139.6225  143.0536  160.3826 C.ar    1  UNL1        0.1426
     12 C         139.6136  141.7181  161.0654 C.ar    1  UNL1        0.1895
     13 O         140.1449  141.5862  162.4620 O.3     1  UNL1       -0.4686
     14 C         140.6850  142.7898  163.1757 C.3     1  UNL1        0.2104
     15 C         140.6939  144.1254  162.4929 C.3     1  UNL1        0.1779
     16 C         141.2341  145.3290  163.2068 C.3     1  UNL1        0.0300
     17 S         140.1627  144.2573  161.0964 S.O2    1  UNL1        0.0138
     18 O         139.7718  144.8827  159.7902 O.2     1  UNL1       -0.1685
     19 O         140.5671  145.6782  161.3565 O.2     1  UNL1       -0.1685
     20 C         137.8318  138.7100  161.7489 C.3     1  UNL1        0.2526
     21 O         139.0645  139.1789  161.0344 O.3     1  UNL1       -0.4683
     22 O         142.8103  142.2622  168.7619 O.3     1  UNL1       -0.4754
     23 C         142.9154  140.9086  169.3996 C.3     1  UNL1        0.2068
     24 C         142.2913  139.7167  168.7365 C.3     1  UNL1        0.0646
     25 C         142.9991  139.0314  167.6054 C.3     1  UNL1        0.0759
     26 N         142.3747  138.9951  166.2421 N.3     1  UNL1       -0.2738
     27 C         140.9052  138.9358  165.9466 C.3     1  UNL1        0.0721
     28 C         140.7323  138.9157  164.4568 C.3     1  UNL1        0.0187
     29 C         142.0950  138.9625  163.8313 C.3     1  UNL1        0.0174
     30 C         143.1100  139.0116  164.9348 C.3     1  UNL1        0.0576
     31 C         144.5989  139.0673  164.7613 C.3     1  UNL1        0.0173
@<TRIPOS>BOND
     1    20    21    1
     2    21     7    1
     3     7     8   ar
     4     8     9   ar
     5     9    10   ar
     6    10    11   ar
     7    11    12   ar
     8    12    13    1
     9    13    14    1
    10    14     1    1
    11     1     2   ar
    12     2     3   ar
    13     3     4   ar
    14     4    22    1
    15    22    23    1
    16    23    24    1
    17    24    25    1
    18    25    26    1
    19    26    27    1
    20    27    28    1
    21    28    29    1
    22    29    30    1
    23    30    31    1
    24     4     5   ar
    25     5     6   ar
    26    14    15    1
    27    15    16    1
    28    15    17    1
    29    17    18    2
    30    17    19    2
    31    12     7   ar
    32     6     1   ar
    33    17    11    1
    34    30    26    1
@<TRIPOS>MOLECULE
*****
 31 34 0 0 0
SMALL
GASTEIGER

@<TRIPOS>ATOM
      1 C         141.9786  143.0996  163.7879 C.ar    1  UNL1        0.0191
      2 C         140.9824  142.1892  164.4428 C.ar    1  UNL1        0.0023
      3 C         141.2891  141.5783  165.7780 C.ar    1  UNL1        0.0367
      4 C         142.5919  141.8778  166.4583 C.ar    1  UNL1        0.1385
      5 C         143.5881  142.7882  165.8034 C.ar    1  UNL1        0.0367
      6 C         143.2814  143.3991  164.4682 C.ar    1  UNL1        0.0023
      7 C         142.9557  143.5240  158.7021 C.ar    1  UNL1        0.1737
      8 C         142.6490  144.1349  157.3670 C.ar    1  UNL1        0.0401
      9 C         141.5469  145.1445  157.2395 C.ar    1  UNL1        0.0046
     10 C         140.7516  145.5431  158.4471 C.ar    1  UNL1        0.0217
     11 C         141.0584  144.9322  159.7823 C.ar    1  UNL1        0.1426
     12 C         142.1604  143.9227  159.9098 C.ar    1  UNL1        0.1895
     13 O         142.4672  143.3118  161.2450 O.3     1  UNL1       -0.4686
     14 C         141.6718  143.7105  162.4527 C.3     1  UNL1        0.2104
     15 C         140.5698  144.7200  162.3252 C.3     1  UNL1        0.1779
     16 C         139.7745  145.1187  163.5330 C.3     1  UNL1        0.0300
     17 S         140.2630  145.3309  160.9901 S.O2    1  UNL1        0.0138
     18 O         139.6001  146.1831  159.9487 O.2     1  UNL1       -0.1685
     19 O         139.2375  146.0255  161.8361 O.2     1  UNL1       -0.1685
     20 C         145.1866  142.5076  157.8419 C.3     1  UNL1        0.2526
     21 O         144.0578  142.5145  158.8296 O.3     1  UNL1       -0.4683
     22 O         142.8986  141.2669  167.7935 O.3     1  UNL1       -0.4754
     23 C         142.2532  139.9729  168.1923 C.3     1  UNL1        0.2068
     24 C         142.9752  138.6763  167.9749 C.3     1  UNL1        0.0646
     25 C         143.7257  138.4408  166.6976 C.3     1  UNL1        0.0759
     26 N         143.0074  138.5073  165.3825 N.3     1  UNL1       -0.2738
     27 C         141.6467  137.9468  165.0916 C.3     1  UNL1        0.0721
     28 C         141.3220  138.2391  163.6567 C.3     1  UNL1        0.0187
     29 C         142.4819  138.9803  163.0606 C.3     1  UNL1        0.0174
     30 C         143.5236  139.1460  164.1272 C.3     1  UNL1        0.0576
     31 C         144.8487  139.8304  163.9668 C.3     1  UNL1        0.0173
@<TRIPOS>BOND
     1    20    21    1
     2    21     7    1
     3     7     8   ar
     4     8     9   ar
     5     9    10   ar
     6    10    11   ar
     7    11    12   ar
     8    12    13    1
     9    13    14    1
    10    14     1    1
    11     1     2   ar
    12     2     3   ar
    13     3     4   ar
    14     4    22    1
    15    22    23    1
    16    23    24    1
    17    24    25    1
    18    25    26    1
    19    26    27    1
    20    27    28    1
    21    28    29    1
    22    29    30    1
    23    30    31    1
    24     4     5   ar
    25     5     6   ar
    26    14    15    1
    27    15    16    1
    28    15    17    1
    29    17    18    2
    30    17    19    2
    31    12     7   ar
    32     6     1   ar
    33    17    11    1
    34    30    26    1
@<TRIPOS>MOLECULE
*****
 31 34 0 0 0
SMALL
GASTEIGER

@<TRIPOS>ATOM
      1 C         139.2082  140.9731  162.6867 C.ar    1  UNL1        0.0191
      2 C         140.3948  140.1939  163.1713 C.ar    1  UNL1        0.0023
      3 C         140.3924  139.6042  164.5505 C.ar    1  UNL1        0.0367
      4 C         139.2033  139.7935  165.4450 C.ar    1  UNL1        0.1385
      5 C         138.0167  140.5727  164.9603 C.ar    1  UNL1        0.0367
      6 C         138.0192  141.1625  163.5812 C.ar    1  UNL1        0.0023
      7 C         140.2544  144.9313  159.4869 C.ar    1  UNL1        0.1737
      8 C         140.2569  145.5210  158.1077 C.ar    1  UNL1        0.0401
      9 C         139.7388  144.7214  156.9492 C.ar    1  UNL1        0.0046
     10 C         139.2182  143.3321  157.1698 C.ar    1  UNL1        0.0217
     11 C         139.2157  142.7424  158.5490 C.ar    1  UNL1        0.1426
     12 C         139.7338  143.5420  159.7076 C.ar    1  UNL1        0.1895
     13 O         139.7313  142.9522  161.0868 O.3     1  UNL1       -0.4686
     14 C         139.2107  141.5629  161.3074 C.3     1  UNL1        0.2104
     15 C         138.6927  140.7633  160.1489 C.3     1  UNL1        0.1779
     16 C         138.1721  139.3739  160.3696 C.3     1  UNL1        0.0300
     17 S         138.6951  141.3530  158.7697 S.O2    1  UNL1        0.0138
     18 O         138.4924  141.4749  157.2885 O.2     1  UNL1       -0.1685
     19 O         138.1041  140.0060  158.4760 O.2     1  UNL1       -0.1685
     20 C         139.8248  146.2318  161.6947 C.3     1  UNL1        0.2526
     21 O         140.7725  145.7309  160.6455 O.3     1  UNL1       -0.4683
     22 O         139.2008  139.2037  166.8242 O.3     1  UNL1       -0.4754
     23 C         139.4636  140.0782  168.0143 C.3     1  UNL1        0.2068
     24 C         140.7214  140.8925  168.0835 C.3     1  UNL1        0.0646
     25 C         140.7078  142.3311  167.6587 C.3     1  UNL1        0.0759
     26 N         141.2319  142.7192  166.3080 N.3     1  UNL1       -0.2738
     27 C         142.5697  142.3466  165.7408 C.3     1  UNL1        0.0721
     28 C         142.6748  142.9452  164.3695 C.3     1  UNL1        0.0187
     29 C         141.4020  143.6878  164.0890 C.3     1  UNL1        0.0174
     30 C         140.5102  143.5481  165.2871 C.3     1  UNL1        0.0576
     31 C         139.1378  144.1344  165.4377 C.3     1  UNL1        0.0173
@<TRIPOS>BOND
     1    20    21    1
     2    21     7    1
     3     7     8   ar
     4     8     9   ar
     5     9    10   ar
     6    10    11   ar
     7    11    12   ar
     8    12    13    1
     9    13    14    1
    10    14     1    1
    11     1     2   ar
    12     2     3   ar
    13     3     4   ar
    14     4    22    1
    15    22    23    1
    16    23    24    1
    17    24    25    1
    18    25    26    1
    19    26    27    1
    20    27    28    1
    21    28    29    1
    22    29    30    1
    23    30    31    1
    24     4     5   ar
    25     5     6   ar
    26    14    15    1
    27    15    16    1
    28    15    17    1
    29    17    18    2
    30    17    19    2
    31    12     7   ar
    32     6     1   ar
    33    17    11    1
    34    30    26    1
@<TRIPOS>MOLECULE
*****
 31 34 0 0 0
SMALL
GASTEIGER

@<TRIPOS>ATOM
      1 C         142.9806  140.4987  162.8654 C.ar    1  UNL1        0.0191
      2 C         143.8941  139.3481  162.5626 C.ar    1  UNL1        0.0023
      3 C         144.2267  139.0088  161.1399 C.ar    1  UNL1        0.0367
      4 C         143.6458  139.8201  160.0200 C.ar    1  UNL1        0.1385
      5 C         142.7324  140.9708  160.3227 C.ar    1  UNL1        0.0367
      6 C         142.3998  141.3100  161.7455 C.ar    1  UNL1        0.0023
      7 C         139.9675  139.8789  167.0532 C.ar    1  UNL1        0.1737
      8 C         139.6349  140.2182  168.4759 C.ar    1  UNL1        0.0401
      9 C         140.4763  141.2066  169.2276 C.ar    1  UNL1        0.0046
     10 C         141.6503  141.8558  168.5565 C.ar    1  UNL1        0.0217
     11 C         141.9828  141.5165  167.1338 C.ar    1  UNL1        0.1426
     12 C         141.1414  140.5281  166.3821 C.ar    1  UNL1        0.1895
     13 O         141.4740  140.1888  164.9593 O.3     1  UNL1       -0.4686
     14 C         142.6480  140.8380  164.2882 C.3     1  UNL1        0.2104
     15 C         143.4894  141.8264  165.0399 C.3     1  UNL1        0.1779
     16 C         144.6634  142.4756  164.3688 C.3     1  UNL1        0.0300
     17 S         143.1568  142.1657  166.4627 S.O2    1  UNL1        0.0138
     18 O         143.2423  142.8079  167.8156 O.2     1  UNL1       -0.1685
     19 O         144.3605  143.0379  166.2614 O.2     1  UNL1       -0.1685
     20 C         137.7585  138.5341  166.8042 C.3     1  UNL1        0.2526
     21 O         139.1261  138.8905  166.3015 O.3     1  UNL1       -0.4683
     22 O         143.9785  139.4809  158.5971 O.3     1  UNL1       -0.4754
     23 C         142.9116  138.9573  157.6819 C.3     1  UNL1        0.2068
     24 C         141.8706  138.0132  158.2062 C.3     1  UNL1        0.0646
     25 C         140.4786  138.5044  158.4727 C.3     1  UNL1        0.0759
     26 N         140.0036  138.6828  159.8843 N.3     1  UNL1       -0.2738
     27 C         140.6057  138.0500  161.1038 C.3     1  UNL1        0.0721
     28 C         139.8174  138.5014  162.2975 C.3     1  UNL1        0.0187
     29 C         138.7279  139.4131  161.8157 C.3     1  UNL1        0.0174
     30 C         138.8431  139.5252  160.3242 C.3     1  UNL1        0.0576
     31 C         137.9538  140.3371  159.4299 C.3     1  UNL1        0.0173
@<TRIPOS>BOND
     1    20    21    1
     2    21     7    1
     3     7     8   ar
     4     8     9   ar
     5     9    10   ar
     6    10    11   ar
     7    11    12   ar
     8    12    13    1
     9    13    14    1
    10    14     1    1
    11     1     2   ar
    12     2     3   ar
    13     3     4   ar
    14     4    22    1
    15    22    23    1
    16    23    24    1
    17    24    25    1
    18    25    26    1
    19    26    27    1
    20    27    28    1
    21    28    29    1
    22    29    30    1
    23    30    31    1
    24     4     5   ar
    25     5     6   ar
    26    14    15    1
    27    15    16    1
    28    15    17    1
    29    17    18    2
    30    17    19    2
    31    12     7   ar
    32     6     1   ar
    33    17    11    1
    34    30    26    1
