@<TRIPOS>MOLECULE
*****
 33 37 0 0 0
SMALL
GASTEIGER

@<TRIPOS>ATOM
      1 O         137.9250  141.4835  160.3394 O.2     1  UNL1       -0.2720
      2 C         138.7807  141.0661  161.4984 C.2     1  UNL1        0.2538
      3 N         139.7275  142.0474  162.1233 N.am    1  UNL1       -0.2530
      4 C         140.5833  141.6299  163.2825 C.3     1  UNL1        0.1254
      5 C         140.4921  140.2312  163.8166 C.3     1  UNL1        0.1144
      6 C         140.4010  138.8325  164.3508 C.3     1  UNL1        0.0463
      7 C         141.2567  138.4151  165.5099 C.3     1  UNL1        0.0746
      8 N         142.2036  139.3964  166.1348 N.3     1  UNL1       -0.2722
      9 C         142.2947  140.7951  165.6007 C.3     1  UNL1        0.0746
     10 C         141.4390  141.2125  164.4415 C.3     1  UNL1        0.0463
     11 O         139.5452  139.2500  163.1917 O.3     1  UNL1       -0.3529
     12 C         138.6895  139.6674  162.0326 C.3     1  UNL1        0.1611
     13 C         138.0902  138.2934  161.9802 C.3     1  UNL1        0.0391
     14 C         137.6488  139.3419  161.0026 C.3     1  UNL1        0.0391
     15 C         139.8187  143.4461  161.5892 C.ar    1  UNL1        0.0757
     16 C         140.5742  143.7172  160.3221 C.ar    1  UNL1        0.0180
     17 C         140.6654  145.1159  159.7879 C.ar    1  UNL1        0.0219
     18 C         140.0010  146.2435  160.5209 C.ar    1  UNL1        0.0989
     19 N         139.2454  145.9723  161.7880 N.ar    1  UNL1       -0.2386
     20 C         139.1542  144.5736  162.3222 C.ar    1  UNL1        0.1662
     21 C         138.3987  144.3024  163.5893 C.3     1  UNL1        0.4360
     22 F         137.6431  144.0312  164.8564 F       1  UNL1       -0.1644
     23 F         137.2565  143.7491  162.7897 F       1  UNL1       -0.1644
     24 F         139.5409  144.8558  164.3888 F       1  UNL1       -0.1644
     25 C         143.0593  138.9789  167.2939 C.3     1  UNL1        0.0769
     26 C         142.5923  139.2252  168.6979 C.3     1  UNL1        0.0459
     27 C         142.1521  140.5980  169.1120 C.ar    1  UNL1        0.0067
     28 C         143.1559  141.5805  169.6386 C.ar    1  UNL1       -0.0020
     29 C         142.7156  142.9534  170.0527 C.ar    1  UNL1       -0.0002
     30 C         141.2717  143.3438  169.9402 C.ar    1  UNL1        0.0023
     31 C         140.2680  142.3613  169.4136 C.ar    1  UNL1        0.0293
     32 C         140.7082  140.9885  168.9995 C.ar    1  UNL1        0.1362
     33 F         139.7045  140.0060  168.4729 F       1  UNL1       -0.2045
@<TRIPOS>BOND
     1     1     2    2
     2     2     3   am
     3     3    15    1
     4    15    16   ar
     5    16    17   ar
     6    17    18   ar
     7    18    19   ar
     8    19    20   ar
     9    20    21    1
    10    21    22    1
    11    21    23    1
    12    21    24    1
    13     3     4    1
    14     4     5    1
    15     5     6    1
    16     6     7    1
    17     7     8    1
    18     8    25    1
    19    25    26    1
    20    26    27    1
    21    27    28   ar
    22    28    29   ar
    23    29    30   ar
    24    30    31   ar
    25    31    32   ar
    26    32    33    1
    27     8     9    1
    28     9    10    1
    29     5    11    1
    30    11    12    1
    31    12    13    1
    32    13    14    1
    33    12     2    1
    34    20    15   ar
    35    10     5    1
    36    14    12    1
    37    32    27   ar
@<TRIPOS>MOLECULE
*****
 33 37 0 0 0
SMALL
GASTEIGER

@<TRIPOS>ATOM
      1 O         144.1571  142.1368  161.3351 O.2     1  UNL1       -0.2720
      2 C         143.2769  141.7228  162.4769 C.2     1  UNL1        0.2538
      3 N         141.8575  142.2035  162.5423 N.am    1  UNL1       -0.2530
      4 C         140.9773  141.7895  163.6842 C.3     1  UNL1        0.1254
      5 C         141.5165  140.8948  164.7607 C.3     1  UNL1        0.1144
      6 C         142.0556  140.0001  165.8372 C.3     1  UNL1        0.0463
      7 C         141.1755  139.5861  166.9790 C.3     1  UNL1        0.0746
      8 N         139.7560  140.0668  167.0444 N.3     1  UNL1       -0.2722
      9 C         139.2168  140.9615  165.9679 C.3     1  UNL1        0.0746
     10 C         140.0971  141.3755  164.8260 C.3     1  UNL1        0.0463
     11 O         142.9359  140.4141  164.6953 O.3     1  UNL1       -0.3529
     12 C         143.8161  140.8281  163.5534 C.3     1  UNL1        0.1611
     13 C         144.9468  140.0341  164.1372 C.3     1  UNL1        0.0391
     14 C         145.1437  140.7896  162.8564 C.3     1  UNL1        0.0391
     15 C         141.3183  143.0982  161.4658 C.ar    1  UNL1        0.0757
     16 C         140.7897  142.5058  160.1932 C.ar    1  UNL1        0.0180
     17 C         140.2505  143.4005  159.1167 C.ar    1  UNL1        0.0219
     18 C         140.2400  144.8876  159.3129 C.ar    1  UNL1        0.0989
     19 N         140.7687  145.4800  160.5855 N.ar    1  UNL1       -0.2386
     20 C         141.3078  144.5853  161.6620 C.ar    1  UNL1        0.1662
     21 C         141.8365  145.1777  162.9346 C.3     1  UNL1        0.4360
     22 F         142.3652  145.7701  164.2073 F       1  UNL1       -0.1644
     23 F         143.2384  145.0251  162.4232 F       1  UNL1       -0.1644
     24 F         140.4347  145.3302  163.4460 F       1  UNL1       -0.1644
     25 C         138.8759  139.6528  168.1862 C.3     1  UNL1        0.0769
     26 C         139.0297  140.3070  169.5273 C.3     1  UNL1        0.0459
     27 C         140.2074  141.1957  169.7975 C.ar    1  UNL1        0.0067
     28 C         140.0613  142.6853  169.6988 C.ar    1  UNL1       -0.0020
     29 C         141.2391  143.5740  169.9691 C.ar    1  UNL1       -0.0002
     30 C         142.5630  142.9731  170.3381 C.ar    1  UNL1        0.0023
     31 C         142.7091  141.4835  170.4368 C.ar    1  UNL1        0.0293
     32 C         141.5314  140.5948  170.1666 C.ar    1  UNL1        0.1362
     33 F         141.6775  139.1052  170.2653 F       1  UNL1       -0.2045
@<TRIPOS>BOND
     1     1     2    2
     2     2     3   am
     3     3    15    1
     4    15    16   ar
     5    16    17   ar
     6    17    18   ar
     7    18    19   ar
     8    19    20   ar
     9    20    21    1
    10    21    22    1
    11    21    23    1
    12    21    24    1
    13     3     4    1
    14     4     5    1
    15     5     6    1
    16     6     7    1
    17     7     8    1
    18     8    25    1
    19    25    26    1
    20    26    27    1
    21    27    28   ar
    22    28    29   ar
    23    29    30   ar
    24    30    31   ar
    25    31    32   ar
    26    32    33    1
    27     8     9    1
    28     9    10    1
    29     5    11    1
    30    11    12    1
    31    12    13    1
    32    13    14    1
    33    12     2    1
    34    20    15   ar
    35    10     5    1
    36    14    12    1
    37    32    27   ar
@<TRIPOS>MOLECULE
*****
 33 37 0 0 0
SMALL
GASTEIGER

@<TRIPOS>ATOM
      1 O         139.4807  140.0791  167.3862 O.2     1  UNL1       -0.2720
      2 C         139.6042  141.0256  166.2291 C.2     1  UNL1        0.2538
      3 N         140.4502  142.2577  166.3550 N.am    1  UNL1       -0.2530
      4 C         140.5738  143.2042  165.1979 C.3     1  UNL1        0.1254
      5 C         139.8512  142.9185  163.9148 C.3     1  UNL1        0.1144
      6 C         139.1287  142.6328  162.6317 C.3     1  UNL1        0.0463
      7 C         139.2522  143.5792  161.4746 C.3     1  UNL1        0.0746
      8 N         140.0983  144.8114  161.6005 N.3     1  UNL1       -0.2722
      9 C         140.8208  145.0972  162.8836 C.3     1  UNL1        0.0746
     10 C         140.6973  144.1507  164.0408 C.3     1  UNL1        0.0463
     11 O         139.0051  141.6863  163.7889 O.3     1  UNL1       -0.3529
     12 C         138.8816  140.7398  164.9460 C.3     1  UNL1        0.1611
     13 C         137.9760  139.8634  164.1325 C.3     1  UNL1        0.0391
     14 C         138.3219  139.4820  165.5414 C.3     1  UNL1        0.0391
     15 C         141.1728  142.5435  167.6381 C.ar    1  UNL1        0.0757
     16 C         140.4319  143.1352  168.8004 C.ar    1  UNL1        0.0180
     17 C         141.1544  143.4209  170.0835 C.ar    1  UNL1        0.0219
     18 C         142.6179  143.1150  170.2043 C.ar    1  UNL1        0.0989
     19 N         143.3589  142.5232  169.0420 N.ar    1  UNL1       -0.2386
     20 C         142.6363  142.2375  167.7589 C.ar    1  UNL1        0.1662
     21 C         143.3772  141.6458  166.5966 C.3     1  UNL1        0.4360
     22 F         144.1182  141.0541  165.4343 F       1  UNL1       -0.1644
     23 F         143.8079  143.0186  166.1723 F       1  UNL1       -0.1644
     24 F         142.9466  140.2731  167.0210 F       1  UNL1       -0.1644
     25 C         140.2218  145.7579  160.4434 C.3     1  UNL1        0.0769
     26 C         140.9238  145.3236  159.1909 C.3     1  UNL1        0.0459
     27 C         140.1692  145.2455  157.8969 C.ar    1  UNL1        0.0067
     28 C         140.0031  146.4725  157.0503 C.ar    1  UNL1       -0.0020
     29 C         139.2485  146.3942  155.7562 C.ar    1  UNL1       -0.0002
     30 C         138.6601  145.0890  155.3088 C.ar    1  UNL1        0.0023
     31 C         138.8262  143.8620  156.1555 C.ar    1  UNL1        0.0293
     32 C         139.5808  143.9402  157.4495 C.ar    1  UNL1        0.1362
     33 F         139.7469  142.7132  158.2962 F       1  UNL1       -0.2045
@<TRIPOS>BOND
     1     1     2    2
     2     2     3   am
     3     3    15    1
     4    15    16   ar
     5    16    17   ar
     6    17    18   ar
     7    18    19   ar
     8    19    20   ar
     9    20    21    1
    10    21    22    1
    11    21    23    1
    12    21    24    1
    13     3     4    1
    14     4     5    1
    15     5     6    1
    16     6     7    1
    17     7     8    1
    18     8    25    1
    19    25    26    1
    20    26    27    1
    21    27    28   ar
    22    28    29   ar
    23    29    30   ar
    24    30    31   ar
    25    31    32   ar
    26    32    33    1
    27     8     9    1
    28     9    10    1
    29     5    11    1
    30    11    12    1
    31    12    13    1
    32    13    14    1
    33    12     2    1
    34    20    15   ar
    35    10     5    1
    36    14    12    1
    37    32    27   ar
@<TRIPOS>MOLECULE
*****
 33 37 0 0 0
SMALL
GASTEIGER

@<TRIPOS>ATOM
      1 O         138.7188  139.5113  168.1644 O.2     1  UNL1       -0.2720
      2 C         139.6464  139.7777  167.0161 C.2     1  UNL1        0.2538
      3 N         140.7308  140.8052  167.1509 N.am    1  UNL1       -0.2530
      4 C         141.6585  141.0716  166.0026 C.3     1  UNL1        0.1254
      5 C         141.5017  140.3105  164.7196 C.3     1  UNL1        0.1144
      6 C         141.3449  139.5493  163.4366 C.3     1  UNL1        0.0463
      7 C         142.2725  139.8157  162.2883 C.3     1  UNL1        0.0746
      8 N         143.3570  140.8433  162.4230 N.3     1  UNL1       -0.2722
      9 C         143.5138  141.6044  163.7060 C.3     1  UNL1        0.0746
     10 C         142.5861  141.3380  164.8543 C.3     1  UNL1        0.0463
     11 O         140.4172  139.2829  164.5849 O.3     1  UNL1       -0.3529
     12 C         139.4896  139.0165  165.7331 C.3     1  UNL1        0.1611
     13 C         138.7729  137.9839  164.9146 C.3     1  UNL1        0.0391
     14 C         138.3279  138.2695  166.3183 C.3     1  UNL1        0.0391
     15 C         140.8876  141.5663  168.4339 C.ar    1  UNL1        0.0757
     16 C         140.2968  142.9384  168.5690 C.ar    1  UNL1        0.0180
     17 C         140.4536  143.6995  169.8520 C.ar    1  UNL1        0.0219
     18 C         141.2013  143.0886  170.9999 C.ar    1  UNL1        0.0989
     19 N         141.7922  141.7165  170.8648 N.ar    1  UNL1       -0.2386
     20 C         141.6354  140.9553  169.5818 C.ar    1  UNL1        0.1662
     21 C         142.2263  139.5833  169.4467 C.3     1  UNL1        0.4360
     22 F         142.8173  138.2112  169.3115 F       1  UNL1       -0.1644
     23 F         143.3335  140.1432  168.6036 F       1  UNL1       -0.1644
     24 F         141.1191  139.0234  170.2896 F       1  UNL1       -0.1644
     25 C         144.2846  141.1096  161.2748 C.3     1  UNL1        0.0769
     26 C         144.0988  142.3345  160.4291 C.3     1  UNL1        0.0459
     27 C         142.7460  142.9733  160.3213 C.ar    1  UNL1        0.0067
     28 C         141.7654  142.4850  159.2966 C.ar    1  UNL1       -0.0020
     29 C         140.4125  143.1239  159.1889 C.ar    1  UNL1       -0.0002
     30 C         140.0402  144.2511  160.1058 C.ar    1  UNL1        0.0023
     31 C         141.0208  144.7395  161.1305 C.ar    1  UNL1        0.0293
     32 C         142.3736  144.1006  161.2382 C.ar    1  UNL1        0.1362
     33 F         143.3542  144.5890  162.2629 F       1  UNL1       -0.2045
@<TRIPOS>BOND
     1     1     2    2
     2     2     3   am
     3     3    15    1
     4    15    16   ar
     5    16    17   ar
     6    17    18   ar
     7    18    19   ar
     8    19    20   ar
     9    20    21    1
    10    21    22    1
    11    21    23    1
    12    21    24    1
    13     3     4    1
    14     4     5    1
    15     5     6    1
    16     6     7    1
    17     7     8    1
    18     8    25    1
    19    25    26    1
    20    26    27    1
    21    27    28   ar
    22    28    29   ar
    23    29    30   ar
    24    30    31   ar
    25    31    32   ar
    26    32    33    1
    27     8     9    1
    28     9    10    1
    29     5    11    1
    30    11    12    1
    31    12    13    1
    32    13    14    1
    33    12     2    1
    34    20    15   ar
    35    10     5    1
    36    14    12    1
    37    32    27   ar
@<TRIPOS>MOLECULE
*****
 33 37 0 0 0
SMALL
GASTEIGER

@<TRIPOS>ATOM
      1 O         139.4699  137.6020  165.3078 O.2     1  UNL1       -0.2720
      2 C         139.7473  138.8649  164.5475 C.2     1  UNL1        0.2538
      3 N         140.5164  139.9773  165.1964 N.am    1  UNL1       -0.2530
      4 C         140.7938  141.2403  164.4361 C.3     1  UNL1        0.1254
      5 C         140.3023  141.3907  163.0270 C.3     1  UNL1        0.1144
      6 C         139.8107  141.5412  161.6178 C.3     1  UNL1        0.0463
      7 C         140.0882  142.8041  160.8575 C.3     1  UNL1        0.0746
      8 N         140.8572  143.9166  161.5064 N.3     1  UNL1       -0.2722
      9 C         141.3488  143.7662  162.9156 C.3     1  UNL1        0.0746
     10 C         141.0713  142.5032  163.6759 C.3     1  UNL1        0.0463
     11 O         139.5332  140.2782  162.3781 O.3     1  UNL1       -0.3529
     12 C         139.2558  139.0153  163.1384 C.3     1  UNL1        0.1611
     13 C         138.5280  138.4599  161.9502 C.3     1  UNL1        0.0391
     14 C         138.6516  137.6439  163.2027 C.3     1  UNL1        0.0391
     15 C         141.0079  139.8268  166.6056 C.ar    1  UNL1        0.0757
     16 C         140.0889  140.1154  167.7553 C.ar    1  UNL1        0.0180
     17 C         140.5804  139.9649  169.1645 C.ar    1  UNL1        0.0219
     18 C         141.9910  139.5258  169.4239 C.ar    1  UNL1        0.0989
     19 N         142.9102  139.2372  168.2741 N.ar    1  UNL1       -0.2386
     20 C         142.4186  139.3877  166.8649 C.ar    1  UNL1        0.1662
     21 C         143.3377  139.0991  165.7152 C.3     1  UNL1        0.4360
     22 F         144.2568  138.8105  164.5653 F       1  UNL1       -0.1644
     23 F         143.7357  140.5447  165.6705 F       1  UNL1       -0.1644
     24 F         142.9396  137.6536  165.7599 F       1  UNL1       -0.1644
     25 C         141.1347  145.1795  160.7461 C.3     1  UNL1        0.0769
     26 C         140.3076  145.5286  159.5444 C.3     1  UNL1        0.0459
     27 C         140.8819  145.3722  158.1676 C.ar    1  UNL1        0.0067
     28 C         141.9534  144.3539  157.9131 C.ar    1  UNL1       -0.0020
     29 C         142.5277  144.1975  156.5362 C.ar    1  UNL1       -0.0002
     30 C         142.0304  145.0593  155.4138 C.ar    1  UNL1        0.0023
     31 C         140.9588  146.0777  155.6683 C.ar    1  UNL1        0.0293
     32 C         140.3845  146.2341  157.0451 C.ar    1  UNL1        0.1362
     33 F         139.3130  147.2524  157.2996 F       1  UNL1       -0.2045
@<TRIPOS>BOND
     1     1     2    2
     2     2     3   am
     3     3    15    1
     4    15    16   ar
     5    16    17   ar
     6    17    18   ar
     7    18    19   ar
     8    19    20   ar
     9    20    21    1
    10    21    22    1
    11    21    23    1
    12    21    24    1
    13     3     4    1
    14     4     5    1
    15     5     6    1
    16     6     7    1
    17     7     8    1
    18     8    25    1
    19    25    26    1
    20    26    27    1
    21    27    28   ar
    22    28    29   ar
    23    29    30   ar
    24    30    31   ar
    25    31    32   ar
    26    32    33    1
    27     8     9    1
    28     9    10    1
    29     5    11    1
    30    11    12    1
    31    12    13    1
    32    13    14    1
    33    12     2    1
    34    20    15   ar
    35    10     5    1
    36    14    12    1
    37    32    27   ar
@<TRIPOS>MOLECULE
*****
 33 37 0 0 0
SMALL
GASTEIGER

@<TRIPOS>ATOM
      1 O         143.1374  138.7572  167.6985 O.2     1  UNL1       -0.2720
      2 C         142.8013  139.8822  166.7649 C.2     1  UNL1        0.2538
      3 N         141.7676  140.8968  167.1547 N.am    1  UNL1       -0.2530
      4 C         141.4315  142.0218  166.2212 C.3     1  UNL1        0.1254
      5 C         142.1291  142.1321  164.8979 C.3     1  UNL1        0.1144
      6 C         142.8267  142.2424  163.5745 C.3     1  UNL1        0.0463
      7 C         142.4906  143.3674  162.6410 C.3     1  UNL1        0.0746
      8 N         141.4569  144.3820  163.0308 N.3     1  UNL1       -0.2722
      9 C         140.7593  144.2717  164.3541 C.3     1  UNL1        0.0746
     10 C         141.0954  143.1467  165.2877 C.3     1  UNL1        0.0463
     11 O         143.1628  141.1174  164.5081 O.3     1  UNL1       -0.3529
     12 C         143.4989  139.9925  165.4416 C.3     1  UNL1        0.1611
     13 C         144.4985  139.4704  164.4526 C.3     1  UNL1        0.0391
     14 C         144.2898  138.7572  165.7556 C.3     1  UNL1        0.0391
     15 C         141.0700  140.7864  168.4781 C.ar    1  UNL1        0.0757
     16 C         139.7021  140.1761  168.5562 C.ar    1  UNL1        0.0180
     17 C         139.0045  140.0658  169.8795 C.ar    1  UNL1        0.0219
     18 C         139.6748  140.5658  171.1247 C.ar    1  UNL1        0.0989
     19 N         141.0428  141.1762  171.0466 N.ar    1  UNL1       -0.2386
     20 C         141.7404  141.2865  169.7233 C.ar    1  UNL1        0.1662
     21 C         143.1084  141.8969  169.6452 C.3     1  UNL1        0.4360
     22 F         144.4764  142.5073  169.5670 F       1  UNL1       -0.1644
     23 F         143.7132  140.5982  170.0898 F       1  UNL1       -0.1644
     24 F         142.5035  143.1955  169.2006 F       1  UNL1       -0.1644
     25 C         141.1208  145.5070  162.0973 C.3     1  UNL1        0.0769
     26 C         140.0366  145.3349  161.0751 C.3     1  UNL1        0.0459
     27 C         139.5999  143.9584  160.6694 C.ar    1  UNL1        0.0067
     28 C         140.2266  143.2928  159.4802 C.ar    1  UNL1       -0.0020
     29 C         139.7898  141.9162  159.0746 C.ar    1  UNL1       -0.0002
     30 C         138.7265  141.2054  159.8581 C.ar    1  UNL1        0.0023
     31 C         138.0999  141.8710  161.0474 C.ar    1  UNL1        0.0293
     32 C         138.5365  143.2475  161.4530 C.ar    1  UNL1        0.1362
     33 F         137.9099  143.9131  162.6422 F       1  UNL1       -0.2045
@<TRIPOS>BOND
     1     1     2    2
     2     2     3   am
     3     3    15    1
     4    15    16   ar
     5    16    17   ar
     6    17    18   ar
     7    18    19   ar
     8    19    20   ar
     9    20    21    1
    10    21    22    1
    11    21    23    1
    12    21    24    1
    13     3     4    1
    14     4     5    1
    15     5     6    1
    16     6     7    1
    17     7     8    1
    18     8    25    1
    19    25    26    1
    20    26    27    1
    21    27    28   ar
    22    28    29   ar
    23    29    30   ar
    24    30    31   ar
    25    31    32   ar
    26    32    33    1
    27     8     9    1
    28     9    10    1
    29     5    11    1
    30    11    12    1
    31    12    13    1
    32    13    14    1
    33    12     2    1
    34    20    15   ar
    35    10     5    1
    36    14    12    1
    37    32    27   ar
@<TRIPOS>MOLECULE
*****
 33 37 0 0 0
SMALL
GASTEIGER

@<TRIPOS>ATOM
      1 O         142.4771  142.2764  162.7150 O.2     1  UNL1       -0.2720
      2 C         142.1773  143.0369  161.4574 C.2     1  UNL1        0.2538
      3 N         140.9036  143.8205  161.3404 N.am    1  UNL1       -0.2530
      4 C         140.6037  144.5811  160.0828 C.3     1  UNL1        0.1254
      5 C         141.5776  144.5581  158.9421 C.3     1  UNL1        0.1144
      6 C         142.5514  144.5352  157.8015 C.3     1  UNL1        0.0463
      7 C         142.2516  145.2957  156.5439 C.3     1  UNL1        0.0746
      8 N         140.9778  146.0793  156.4269 N.3     1  UNL1       -0.2722
      9 C         140.0040  146.1023  157.5675 C.3     1  UNL1        0.0746
     10 C         140.3039  145.3416  158.8252 C.3     1  UNL1        0.0463
     11 O         142.8513  143.7745  159.0591 O.3     1  UNL1       -0.3529
     12 C         143.1511  143.0140  160.3167 C.3     1  UNL1        0.1611
     13 C         144.4488  142.5483  159.7257 C.3     1  UNL1        0.0391
     14 C         144.0597  142.1225  161.1103 C.3     1  UNL1        0.0391
     15 C         139.9297  143.8434  162.4811 C.ar    1  UNL1        0.0757
     16 C         140.0613  144.8783  163.5588 C.ar    1  UNL1        0.0180
     17 C         139.0874  144.9012  164.6995 C.ar    1  UNL1        0.0219
     18 C         137.9820  143.8893  164.7623 C.ar    1  UNL1        0.0989
     19 N         137.8504  142.8544  163.6845 N.ar    1  UNL1       -0.2386
     20 C         138.8242  142.8314  162.5439 C.ar    1  UNL1        0.1662
     21 C         138.6927  141.7966  161.4661 C.3     1  UNL1        0.4360
     22 F         138.5611  140.7617  160.3882 F       1  UNL1       -0.1644
     23 F         137.8412  142.7377  160.6665 F       1  UNL1       -0.1644
     24 F         139.5441  140.8555  162.2657 F       1  UNL1       -0.1644
     25 C         140.6780  146.8399  155.1693 C.3     1  UNL1        0.0769
     26 C         139.3290  147.4664  154.9752 C.3     1  UNL1        0.0459
     27 C         139.2143  148.9443  154.7461 C.ar    1  UNL1        0.0067
     28 C         139.6635  149.5385  153.4441 C.ar    1  UNL1       -0.0020
     29 C         139.5489  151.0165  153.2151 C.ar    1  UNL1       -0.0002
     30 C         138.9850  151.9002  154.2879 C.ar    1  UNL1        0.0023
     31 C         138.5358  151.3060  155.5899 C.ar    1  UNL1        0.0293
     32 C         138.6504  149.8281  155.8190 C.ar    1  UNL1        0.1362
     33 F         138.2012  149.2339  157.1210 F       1  UNL1       -0.2045
@<TRIPOS>BOND
     1     1     2    2
     2     2     3   am
     3     3    15    1
     4    15    16   ar
     5    16    17   ar
     6    17    18   ar
     7    18    19   ar
     8    19    20   ar
     9    20    21    1
    10    21    22    1
    11    21    23    1
    12    21    24    1
    13     3     4    1
    14     4     5    1
    15     5     6    1
    16     6     7    1
    17     7     8    1
    18     8    25    1
    19    25    26    1
    20    26    27    1
    21    27    28   ar
    22    28    29   ar
    23    29    30   ar
    24    30    31   ar
    25    31    32   ar
    26    32    33    1
    27     8     9    1
    28     9    10    1
    29     5    11    1
    30    11    12    1
    31    12    13    1
    32    13    14    1
    33    12     2    1
    34    20    15   ar
    35    10     5    1
    36    14    12    1
    37    32    27   ar
@<TRIPOS>MOLECULE
*****
 33 37 0 0 0
SMALL
GASTEIGER

@<TRIPOS>ATOM
      1 O         139.6644  143.6175  166.9621 O.2     1  UNL1       -0.2720
      2 C         140.4165  143.2659  165.7129 C.2     1  UNL1        0.2538
      3 N         141.5521  142.2876  165.7715 N.am    1  UNL1       -0.2530
      4 C         142.3043  141.9360  164.5222 C.3     1  UNL1        0.1254
      5 C         141.9210  142.5627  163.2145 C.3     1  UNL1        0.1144
      6 C         141.5377  143.1894  161.9067 C.3     1  UNL1        0.0463
      7 C         142.2899  142.8378  160.6575 C.3     1  UNL1        0.0746
      8 N         143.4254  141.8595  160.7160 N.3     1  UNL1       -0.2722
      9 C         143.8088  141.2327  162.0238 C.3     1  UNL1        0.0746
     10 C         143.0565  141.5844  163.2730 C.3     1  UNL1        0.0463
     11 O         140.7854  143.5410  163.1559 O.3     1  UNL1       -0.3529
     12 C         140.0332  143.8926  164.4051 C.3     1  UNL1        0.1611
     13 C         139.1563  144.8193  163.6163 C.3     1  UNL1        0.0391
     14 C         138.9433  144.6605  165.0926 C.3     1  UNL1        0.0391
     15 C         141.9354  141.6609  167.0793 C.ar    1  UNL1        0.0757
     16 C         142.9453  142.3297  167.9640 C.ar    1  UNL1        0.0180
     17 C         143.3286  141.7029  169.2718 C.ar    1  UNL1        0.0219
     18 C         142.7020  140.4074  169.6948 C.ar    1  UNL1        0.0989
     19 N         141.6921  139.7386  168.8101 N.ar    1  UNL1       -0.2386
     20 C         141.3087  140.3653  167.5023 C.ar    1  UNL1        0.1662
     21 C         140.2988  139.6965  166.6176 C.3     1  UNL1        0.4360
     22 F         139.2889  139.0277  165.7328 F       1  UNL1       -0.1644
     23 F         141.3954  138.9144  165.9573 F       1  UNL1       -0.1644
     24 F         139.2024  140.4787  167.2779 F       1  UNL1       -0.1644
     25 C         144.1776  141.5079  159.4668 C.3     1  UNL1        0.0769
     26 C         144.7039  142.5949  158.5772 C.3     1  UNL1        0.0459
     27 C         145.5173  142.2451  157.3664 C.ar    1  UNL1        0.0067
     28 C         144.8949  141.4703  156.2430 C.ar    1  UNL1       -0.0020
     29 C         145.7084  141.1205  155.0322 C.ar    1  UNL1       -0.0002
     30 C         147.1443  141.5456  154.9449 C.ar    1  UNL1        0.0023
     31 C         147.7667  142.3205  156.0684 C.ar    1  UNL1        0.0293
     32 C         146.9532  142.6702  157.2791 C.ar    1  UNL1        0.1362
     33 F         147.5756  143.4451  158.4026 F       1  UNL1       -0.2045
@<TRIPOS>BOND
     1     1     2    2
     2     2     3   am
     3     3    15    1
     4    15    16   ar
     5    16    17   ar
     6    17    18   ar
     7    18    19   ar
     8    19    20   ar
     9    20    21    1
    10    21    22    1
    11    21    23    1
    12    21    24    1
    13     3     4    1
    14     4     5    1
    15     5     6    1
    16     6     7    1
    17     7     8    1
    18     8    25    1
    19    25    26    1
    20    26    27    1
    21    27    28   ar
    22    28    29   ar
    23    29    30   ar
    24    30    31   ar
    25    31    32   ar
    26    32    33    1
    27     8     9    1
    28     9    10    1
    29     5    11    1
    30    11    12    1
    31    12    13    1
    32    13    14    1
    33    12     2    1
    34    20    15   ar
    35    10     5    1
    36    14    12    1
    37    32    27   ar
@<TRIPOS>MOLECULE
*****
 33 37 0 0 0
SMALL
GASTEIGER

@<TRIPOS>ATOM
      1 O         142.8388  138.6746  165.6732 O.2     1  UNL1       -0.2720
      2 C         142.4977  139.7940  164.7348 C.2     1  UNL1        0.2538
      3 N         141.0757  140.2516  164.5988 N.am    1  UNL1       -0.2530
      4 C         140.7346  141.3711  163.6604 C.3     1  UNL1        0.1254
      5 C         141.8154  142.0329  162.8581 C.3     1  UNL1        0.1144
      6 C         142.8963  142.6947  162.0558 C.3     1  UNL1        0.0463
      7 C         142.5552  143.8141  161.1174 C.3     1  UNL1        0.0746
      8 N         141.1332  144.2718  160.9814 N.3     1  UNL1       -0.2722
      9 C         140.0523  143.6099  161.7837 C.3     1  UNL1        0.0746
     10 C         140.3935  142.4905  162.7221 C.3     1  UNL1        0.0463
     11 O         143.2375  141.5752  162.9942 O.3     1  UNL1       -0.3529
     12 C         143.5786  140.4558  163.9325 C.3     1  UNL1        0.1611
     13 C         145.0236  140.5737  163.5478 C.3     1  UNL1        0.0391
     14 C         144.5965  139.5453  164.5528 C.3     1  UNL1        0.0391
     15 C         139.9949  139.5898  165.4011 C.ar    1  UNL1        0.0757
     16 C         139.6332  140.1228  166.7558 C.ar    1  UNL1        0.0180
     17 C         138.5524  139.4610  167.5581 C.ar    1  UNL1        0.0219
     18 C         137.8331  138.2662  167.0058 C.ar    1  UNL1        0.0989
     19 N         138.1947  137.7331  165.6510 N.ar    1  UNL1       -0.2386
     20 C         139.2756  138.3949  164.8487 C.ar    1  UNL1        0.1662
     21 C         139.6372  137.8620  163.4941 C.3     1  UNL1        0.4360
     22 F         139.9988  137.3290  162.1393 F       1  UNL1       -0.1644
     23 F         138.6194  138.7675  162.8662 F       1  UNL1       -0.1644
     24 F         140.6550  136.9565  164.1220 F       1  UNL1       -0.1644
     25 C         140.7921  145.3912  160.0430 C.3     1  UNL1        0.0769
     26 C         141.2499  145.3391  158.6156 C.3     1  UNL1        0.0459
     27 C         140.2420  145.2813  157.5063 C.ar    1  UNL1        0.0067
     28 C         139.9052  146.5219  156.7334 C.ar    1  UNL1       -0.0020
     29 C         138.8972  146.4640  155.6240 C.ar    1  UNL1       -0.0002
     30 C         138.2260  145.1655  155.2876 C.ar    1  UNL1        0.0023
     31 C         138.5627  143.9248  156.0604 C.ar    1  UNL1        0.0293
     32 C         139.5707  143.9827  157.1697 C.ar    1  UNL1        0.1362
     33 F         139.9075  142.7420  157.9426 F       1  UNL1       -0.2045
@<TRIPOS>BOND
     1     1     2    2
     2     2     3   am
     3     3    15    1
     4    15    16   ar
     5    16    17   ar
     6    17    18   ar
     7    18    19   ar
     8    19    20   ar
     9    20    21    1
    10    21    22    1
    11    21    23    1
    12    21    24    1
    13     3     4    1
    14     4     5    1
    15     5     6    1
    16     6     7    1
    17     7     8    1
    18     8    25    1
    19    25    26    1
    20    26    27    1
    21    27    28   ar
    22    28    29   ar
    23    29    30   ar
    24    30    31   ar
    25    31    32   ar
    26    32    33    1
    27     8     9    1
    28     9    10    1
    29     5    11    1
    30    11    12    1
    31    12    13    1
    32    13    14    1
    33    12     2    1
    34    20    15   ar
    35    10     5    1
    36    14    12    1
    37    32    27   ar
