@<TRIPOS>MOLECULE
*****
 42 45 0 0 0
SMALL
GASTEIGER

@<TRIPOS>ATOM
      1 C         143.3573  142.0489  159.9444 C.3     1  UNL1        0.0736
      2 C         142.3910  140.9021  159.9106 C.3     1  UNL1        0.0217
      3 C         141.9785  140.6019  161.3212 C.3     1  UNL1        0.0282
      4 C         142.6899  141.5632  162.2267 C.3     1  UNL1        0.1348
      5 C         142.6718  141.7396  163.7162 C.ar    1  UNL1       -0.0061
      6 C         141.8197  140.8453  164.5671 C.ar    1  UNL1       -0.0032
      7 C         141.8017  141.0218  166.0566 C.ar    1  UNL1       -0.0015
      8 C         142.6357  142.0926  166.6951 C.ar    1  UNL1        0.0232
      9 C         143.4878  142.9869  165.8442 C.ar    1  UNL1       -0.0057
     10 C         143.5059  142.8104  164.3547 C.ar    1  UNL1       -0.0248
     11 C         144.3580  143.7048  163.5037 C.3     1  UNL1        0.0262
     12 C         144.3761  143.5283  162.0143 C.3     1  UNL1        0.0083
     13 C         143.5420  142.4575  161.3758 C.3     1  UNL1        0.0429
     14 C         144.6934  141.8138  157.7287 C.2     1  UNL1        0.2465
     15 O         144.6998  140.3226  157.8908 O.2     1  UNL1       -0.2726
     16 N         144.0221  142.6770  158.7554 N.am    1  UNL1       -0.3040
     17 H         144.0179  143.6557  158.6489 H       1  UNL1        0.1494
     18 C         146.6137  142.6266  157.3394 C.3     1  UNL1        0.0387
     19 C         145.3582  142.4418  156.5396 C.3     1  UNL1        0.1563
     20 C         144.1028  142.2569  155.7399 C.3     1  UNL1        0.0387
     21 O         146.0232  143.0697  155.3507 O.3     1  UNL1       -0.3781
     22 H         145.4011  143.0924  154.6068 H       1  UNL1        0.2109
     23 S         141.7932  140.5984  162.9445 S.O2    1  UNL1        0.0090
     24 O         141.0880  140.9696  162.9654 O.2     1  UNL1       -0.1684
     25 O         142.9371  139.6382  163.0831 O.2     1  UNL1       -0.1684
     26 C         140.8964  139.6337  163.6624 C.ar    1  UNL1        0.1060
     27 C         141.4162  138.2866  164.0684 C.ar    1  UNL1        0.0207
     28 C         140.5195  137.3219  164.7862 C.ar    1  UNL1        0.0310
     29 C         139.1030  137.7044  165.0980 C.ar    1  UNL1        0.1402
     30 F         138.2062  136.7397  165.8158 F       1  UNL1       -0.2042
     31 C         138.5832  139.0516  164.6920 C.ar    1  UNL1        0.0310
     32 C         139.4800  140.0163  163.9742 C.ar    1  UNL1        0.0207
     33 C         142.6177  142.2691  168.1846 C.3     1  UNL1        0.3242
     34 F         144.0719  142.6359  168.1588 F       1  UNL1       -0.2176
     35 C         142.5996  142.4456  169.6741 C.3     1  UNL1        0.4363
     36 F         142.5816  142.6221  171.1636 F       1  UNL1       -0.1666
     37 F         143.6750  141.4087  169.8099 F       1  UNL1       -0.1666
     38 F         141.5301  143.4963  169.7208 F       1  UNL1       -0.1666
     39 C         141.1635  141.9023  168.2105 C.3     1  UNL1        0.4363
     40 F         139.7092  141.5354  168.2364 F       1  UNL1       -0.1666
     41 F         140.6656  143.0724  167.4150 F       1  UNL1       -0.1666
     42 F         141.1250  140.6259  168.9975 F       1  UNL1       -0.1666
@<TRIPOS>BOND
     1    18    19    1
     2    19    20    1
     3    19    21    1
     4    19    14    1
     5    14    15    2
     6    14    16   am
     7     1    16    1
     8     1     2    1
     9     2     3    1
    10     3     4    1
    11     4    23    1
    12    23    24    2
    13    23    25    2
    14    23    26    1
    15    26    27   ar
    16    27    28   ar
    17    28    29   ar
    18    29    30    1
    19    29    31   ar
    20    31    32   ar
    21     4     5    1
    22     5     6   ar
    23     6     7   ar
    24     7     8   ar
    25     8    33    1
    26    33    34    1
    27    33    35    1
    28    35    36    1
    29    35    37    1
    30    35    38    1
    31    33    39    1
    32    39    40    1
    33    39    41    1
    34    39    42    1
    35     8     9   ar
    36     9    10   ar
    37    10    11    1
    38    11    12    1
    39    13    12    1
    40    13     1    1
    41    13     4    1
    42    32    26   ar
    43    10     5   ar
    44    21    22    1
    45    16    17    1
@<TRIPOS>MOLECULE
*****
 42 45 0 0 0
SMALL
GASTEIGER

@<TRIPOS>ATOM
      1 C         142.2069  142.1967  160.1415 C.3     1  UNL1        0.0736
      2 C         141.1956  141.0925  160.2305 C.3     1  UNL1        0.0217
      3 C         140.9565  140.7988  161.6819 C.3     1  UNL1        0.0282
      4 C         141.8200  141.7216  162.4899 C.3     1  UNL1        0.1348
      5 C         142.0024  141.8867  163.9696 C.ar    1  UNL1       -0.0061
      6 C         141.2295  141.0228  164.9216 C.ar    1  UNL1       -0.0032
      7 C         141.4120  141.1880  166.4012 C.ar    1  UNL1       -0.0015
      8 C         142.3672  142.2170  166.9289 C.ar    1  UNL1        0.0232
      9 C         143.1401  143.0810  165.9769 C.ar    1  UNL1       -0.0057
     10 C         142.9576  142.9158  164.4973 C.ar    1  UNL1       -0.0248
     11 C         143.7305  143.7798  163.5452 C.3     1  UNL1        0.0262
     12 C         143.5481  143.6146  162.0656 C.3     1  UNL1        0.0083
     13 C         142.5928  142.5855  161.5379 C.3     1  UNL1        0.0429
     14 C         141.9699  143.8923  158.1874 C.2     1  UNL1        0.2465
     15 O         140.6688  144.3707  158.7603 O.2     1  UNL1       -0.2726
     16 N         142.7390  142.8053  158.8779 N.am    1  UNL1       -0.3040
     17 H         143.5930  142.4913  158.5019 H       1  UNL1        0.1494
     18 C         142.0476  145.8542  157.3845 C.3     1  UNL1        0.0387
     19 C         142.5019  144.5009  156.9238 C.3     1  UNL1        0.1563
     20 C         142.9562  143.1477  156.4631 C.3     1  UNL1        0.0387
     21 O         143.0339  145.1097  155.6603 O.3     1  UNL1       -0.3781
     22 H         143.4255  144.4158  155.1070 H       1  UNL1        0.2109
     23 S         140.9827  140.7903  163.3155 S.O2    1  UNL1        0.0090
     24 O         140.3019  141.1900  163.4264 O.2     1  UNL1       -0.1684
     25 O         142.0940  139.7829  163.3064 O.2     1  UNL1       -0.1684
     26 C         140.1453  139.8590  164.1412 C.ar    1  UNL1        0.1060
     27 C         138.8563  140.3398  164.7386 C.ar    1  UNL1        0.0207
     28 C         138.0189  139.4086  165.5643 C.ar    1  UNL1        0.0310
     29 C         138.4707  137.9966  165.7924 C.ar    1  UNL1        0.1402
     30 F         137.6333  137.0653  166.6181 F       1  UNL1       -0.2042
     31 C         139.7598  137.5157  165.1949 C.ar    1  UNL1        0.0310
     32 C         140.5971  138.4470  164.3693 C.ar    1  UNL1        0.0207
     33 C         142.5496  142.3822  168.4086 C.3     1  UNL1        0.3242
     34 F         144.0166  142.6167  168.2016 F       1  UNL1       -0.2176
     35 C         142.7321  142.5473  169.8883 C.3     1  UNL1        0.4363
     36 F         142.9145  142.7125  171.3680 F       1  UNL1       -0.1666
     37 F         143.7508  141.4464  169.8856 F       1  UNL1       -0.1666
     38 F         141.7432  143.6602  170.0714 F       1  UNL1       -0.1666
     39 C         141.0827  142.1477  168.6157 C.3     1  UNL1        0.4363
     40 F         139.6156  141.9132  168.8227 F       1  UNL1       -0.1666
     41 F         141.2101  140.8809  169.4086 F       1  UNL1       -0.1666
     42 F         140.4282  143.3015  167.9152 F       1  UNL1       -0.1666
@<TRIPOS>BOND
     1    18    19    1
     2    19    20    1
     3    19    21    1
     4    19    14    1
     5    14    15    2
     6    14    16   am
     7     1    16    1
     8     1     2    1
     9     2     3    1
    10     3     4    1
    11     4    23    1
    12    23    24    2
    13    23    25    2
    14    23    26    1
    15    26    27   ar
    16    27    28   ar
    17    28    29   ar
    18    29    30    1
    19    29    31   ar
    20    31    32   ar
    21     4     5    1
    22     5     6   ar
    23     6     7   ar
    24     7     8   ar
    25     8    33    1
    26    33    34    1
    27    33    35    1
    28    35    36    1
    29    35    37    1
    30    35    38    1
    31    33    39    1
    32    39    40    1
    33    39    41    1
    34    39    42    1
    35     8     9   ar
    36     9    10   ar
    37    10    11    1
    38    11    12    1
    39    13    12    1
    40    13     1    1
    41    13     4    1
    42    32    26   ar
    43    10     5   ar
    44    21    22    1
    45    16    17    1
@<TRIPOS>MOLECULE
*****
 42 45 0 0 0
SMALL
GASTEIGER

@<TRIPOS>ATOM
      1 C         142.9371  140.9745  159.6725 C.3     1  UNL1        0.0736
      2 C         141.7606  141.9047  159.6998 C.3     1  UNL1        0.0217
      3 C         141.3413  142.0799  161.1293 C.3     1  UNL1        0.0282
      4 C         142.2587  141.2580  161.9855 C.3     1  UNL1        0.1348
      5 C         142.3233  141.0434  163.4687 C.ar    1  UNL1       -0.0061
      6 C         141.3371  141.7265  164.3690 C.ar    1  UNL1       -0.0032
      7 C         141.4018  141.5120  165.8521 C.ar    1  UNL1       -0.0015
      8 C         142.4527  140.6142  166.4349 C.ar    1  UNL1        0.0232
      9 C         143.4390  139.9311  165.5346 C.ar    1  UNL1       -0.0057
     10 C         143.3743  140.1457  164.0515 C.ar    1  UNL1       -0.0248
     11 C         144.3605  139.4626  163.1510 C.3     1  UNL1        0.0262
     12 C         144.2958  139.6772  161.6679 C.3     1  UNL1        0.0083
     13 C         143.2449  140.5749  161.0851 C.3     1  UNL1        0.0429
     14 C         144.6487  141.4466  157.7759 C.2     1  UNL1        0.2465
     15 O         144.8825  142.8211  158.3289 O.2     1  UNL1       -0.2726
     16 N         143.6760  140.5233  158.4476 N.am    1  UNL1       -0.3040
     17 H         143.5226  139.6211  158.0845 H       1  UNL1        0.1494
     18 C         144.3798  139.9037  156.3451 C.3     1  UNL1        0.0387
     19 C         145.3877  140.9954  156.5509 C.3     1  UNL1        0.1563
     20 C         146.3956  142.0870  156.7568 C.3     1  UNL1        0.0387
     21 O         146.1266  140.5441  155.3260 O.3     1  UNL1       -0.3781
     22 H         146.9004  141.1124  155.1875 H       1  UNL1        0.2109
     23 S         141.2105  142.0045  162.7562 S.O2    1  UNL1        0.0090
     24 O         141.5528  142.7062  162.9174 O.2     1  UNL1       -0.1684
     25 O         140.2854  140.8300  162.6358 O.2     1  UNL1       -0.1684
     26 C         140.1623  142.7511  163.5269 C.ar    1  UNL1        0.1060
     27 C         140.4630  144.1148  164.0745 C.ar    1  UNL1        0.0207
     28 C         139.4149  144.8614  164.8452 C.ar    1  UNL1        0.0310
     29 C         138.0661  144.2443  165.0684 C.ar    1  UNL1        0.1402
     30 F         137.0179  144.9909  165.8391 F       1  UNL1       -0.2042
     31 C         137.7654  142.8805  164.5208 C.ar    1  UNL1        0.0310
     32 C         138.8135  142.1340  163.7501 C.ar    1  UNL1        0.0207
     33 C         142.5174  140.3997  167.9181 C.3     1  UNL1        0.3242
     34 F         142.9065  138.9685  167.6941 F       1  UNL1       -0.2176
     35 C         142.5821  140.1851  169.4013 C.3     1  UNL1        0.4363
     36 F         142.6468  139.9705  170.8845 F       1  UNL1       -0.1666
     37 F         141.5102  139.1410  169.2969 F       1  UNL1       -0.1666
     38 F         143.6539  141.1952  169.6856 F       1  UNL1       -0.1666
     39 C         142.1283  141.8309  168.1422 C.3     1  UNL1        0.4363
     40 F         141.7392  143.2621  168.3663 F       1  UNL1       -0.1666
     41 F         143.3435  142.4505  167.5184 F       1  UNL1       -0.1666
     42 F         140.7998  141.7419  168.8330 F       1  UNL1       -0.1666
@<TRIPOS>BOND
     1    18    19    1
     2    19    20    1
     3    19    21    1
     4    19    14    1
     5    14    15    2
     6    14    16   am
     7     1    16    1
     8     1     2    1
     9     2     3    1
    10     3     4    1
    11     4    23    1
    12    23    24    2
    13    23    25    2
    14    23    26    1
    15    26    27   ar
    16    27    28   ar
    17    28    29   ar
    18    29    30    1
    19    29    31   ar
    20    31    32   ar
    21     4     5    1
    22     5     6   ar
    23     6     7   ar
    24     7     8   ar
    25     8    33    1
    26    33    34    1
    27    33    35    1
    28    35    36    1
    29    35    37    1
    30    35    38    1
    31    33    39    1
    32    39    40    1
    33    39    41    1
    34    39    42    1
    35     8     9   ar
    36     9    10   ar
    37    10    11    1
    38    11    12    1
    39    13    12    1
    40    13     1    1
    41    13     4    1
    42    32    26   ar
    43    10     5   ar
    44    21    22    1
    45    16    17    1
@<TRIPOS>MOLECULE
*****
 42 45 0 0 0
SMALL
GASTEIGER

@<TRIPOS>ATOM
      1 C         142.7187  140.0674  159.8288 C.3     1  UNL1        0.0736
      2 C         141.6151  141.0828  159.7991 C.3     1  UNL1        0.0217
      3 C         141.2562  141.4190  161.2162 C.3     1  UNL1        0.0282
      4 C         142.1381  140.6113  162.1217 C.3     1  UNL1        0.1348
      5 C         142.2348  140.5286  163.6163 C.ar    1  UNL1       -0.0061
      6 C         141.3309  141.3640  164.4737 C.ar    1  UNL1       -0.0032
      7 C         141.4276  141.2812  165.9683 C.ar    1  UNL1       -0.0015
      8 C         142.4282  140.3631  166.6054 C.ar    1  UNL1        0.0232
      9 C         143.3321  139.5278  165.7480 C.ar    1  UNL1       -0.0057
     10 C         143.2354  139.6105  164.2535 C.ar    1  UNL1       -0.0248
     11 C         144.1393  138.7752  163.3960 C.3     1  UNL1        0.0262
     12 C         144.0425  138.8579  161.9014 C.3     1  UNL1        0.0083
     13 C         143.0419  139.7760  161.2643 C.3     1  UNL1        0.0429
     14 C         142.6301  138.4766  157.7766 C.2     1  UNL1        0.2465
     15 O         141.2138  138.1177  158.1160 O.2     1  UNL1       -0.2726
     16 N         143.3826  139.4514  158.6329 N.am    1  UNL1       -0.3040
     17 H         144.3122  139.6870  158.4102 H       1  UNL1        0.1494
     18 C         143.7450  139.2189  156.1316 C.3     1  UNL1        0.0387
     19 C         143.2939  137.8607  156.5807 C.3     1  UNL1        0.1563
     20 C         142.8428  136.5025  157.0299 C.3     1  UNL1        0.0387
     21 O         143.9577  137.2448  155.3849 O.3     1  UNL1       -0.3781
     22 H         143.8258  136.2840  155.4009 H       1  UNL1        0.2109
     23 S         141.1729  141.5025  162.8457 S.O2    1  UNL1        0.0090
     24 O         141.5790  142.1801  162.9526 O.2     1  UNL1       -0.1684
     25 O         140.1448  140.4107  162.8192 O.2     1  UNL1       -0.1684
     26 C         140.2078  142.3938  163.5698 C.ar    1  UNL1        0.1060
     27 C         138.8248  141.9044  163.8823 C.ar    1  UNL1        0.0207
     28 C         137.8596  142.7956  164.6064 C.ar    1  UNL1        0.0310
     29 C         138.2776  144.1761  165.0180 C.ar    1  UNL1        0.1402
     30 F         137.3124  145.0674  165.7421 F       1  UNL1       -0.2042
     31 C         139.6606  144.6655  164.7055 C.ar    1  UNL1        0.0310
     32 C         140.6257  143.7743  163.9814 C.ar    1  UNL1        0.0207
     33 C         142.5249  140.2804  168.1001 C.3     1  UNL1        0.3242
     34 F         142.8255  138.8143  167.9994 F       1  UNL1       -0.2176
     35 C         142.6217  140.1977  169.5946 C.3     1  UNL1        0.4363
     36 F         142.7184  140.1150  171.0893 F       1  UNL1       -0.1666
     37 F         141.5853  139.1133  169.6016 F       1  UNL1       -0.1666
     38 F         143.6621  141.2639  169.7699 F       1  UNL1       -0.1666
     39 C         142.2244  141.7465  168.2007 C.3     1  UNL1        0.4363
     40 F         141.9239  143.2127  168.3013 F       1  UNL1       -0.1666
     41 F         140.9121  141.6156  168.9152 F       1  UNL1       -0.1666
     42 F         143.3989  142.4041  167.5385 F       1  UNL1       -0.1666
@<TRIPOS>BOND
     1    18    19    1
     2    19    20    1
     3    19    21    1
     4    19    14    1
     5    14    15    2
     6    14    16   am
     7     1    16    1
     8     1     2    1
     9     2     3    1
    10     3     4    1
    11     4    23    1
    12    23    24    2
    13    23    25    2
    14    23    26    1
    15    26    27   ar
    16    27    28   ar
    17    28    29   ar
    18    29    30    1
    19    29    31   ar
    20    31    32   ar
    21     4     5    1
    22     5     6   ar
    23     6     7   ar
    24     7     8   ar
    25     8    33    1
    26    33    34    1
    27    33    35    1
    28    35    36    1
    29    35    37    1
    30    35    38    1
    31    33    39    1
    32    39    40    1
    33    39    41    1
    34    39    42    1
    35     8     9   ar
    36     9    10   ar
    37    10    11    1
    38    11    12    1
    39    13    12    1
    40    13     1    1
    41    13     4    1
    42    32    26   ar
    43    10     5   ar
    44    21    22    1
    45    16    17    1
@<TRIPOS>MOLECULE
*****
 42 45 0 0 0
SMALL
GASTEIGER

@<TRIPOS>ATOM
      1 C         140.4605  144.0540  159.9175 C.3     1  UNL1        0.0736
      2 C         141.6102  143.1006  159.7793 C.3     1  UNL1        0.0217
      3 C         141.9384  142.5693  161.1432 C.3     1  UNL1        0.0282
      4 C         140.9915  143.1945  162.1243 C.3     1  UNL1        0.1348
      5 C         140.8430  143.0468  163.6096 C.ar    1  UNL1       -0.0061
      6 C         141.7563  142.1292  164.3671 C.ar    1  UNL1       -0.0032
      7 C         141.6078  141.9815  165.8523 C.ar    1  UNL1       -0.0015
      8 C         140.5459  142.7513  166.5801 C.ar    1  UNL1        0.0232
      9 C         139.6325  143.6689  165.8227 C.ar    1  UNL1       -0.0057
     10 C         139.7811  143.8166  164.3374 C.ar    1  UNL1       -0.0248
     11 C         138.8677  144.7342  163.5799 C.3     1  UNL1        0.0262
     12 C         139.0162  144.8819  162.0946 C.3     1  UNL1        0.0083
     13 C         140.0781  144.1121  161.3668 C.3     1  UNL1        0.0429
     14 C         140.6242  145.7366  157.9447 C.2     1  UNL1        0.2465
     15 O         142.0933  145.8958  158.2024 O.2     1  UNL1       -0.2726
     16 N         139.8078  144.8158  158.8022 N.am    1  UNL1       -0.3040
     17 H         138.8436  144.7113  158.6331 H       1  UNL1        0.1494
     18 C         140.8040  145.7497  155.8311 C.3     1  UNL1        0.0387
     19 C         139.9716  146.4983  156.8294 C.3     1  UNL1        0.1563
     20 C         139.1392  147.2469  157.8277 C.3     1  UNL1        0.0387
     21 O         139.3190  147.2600  155.7140 O.3     1  UNL1       -0.3781
     22 H         138.6708  147.8806  156.0822 H       1  UNL1        0.2109
     23 S         141.9729  142.2444  162.7440 S.O2    1  UNL1        0.0090
     24 O         142.5957  142.7054  162.9313 O.2     1  UNL1       -0.1684
     25 O         141.0099  141.1135  162.5354 O.2     1  UNL1       -0.1684
     26 C         142.9544  141.2943  163.3638 C.ar    1  UNL1        0.1060
     27 C         144.3346  141.7650  163.7147 C.ar    1  UNL1        0.0207
     28 C         145.3161  140.8150  164.3344 C.ar    1  UNL1        0.0310
     29 C         144.9173  139.3942  164.6033 C.ar    1  UNL1        0.1402
     30 F         145.8988  138.4441  165.2231 F       1  UNL1       -0.2042
     31 C         143.5369  138.9235  164.2525 C.ar    1  UNL1        0.0310
     32 C         142.5555  139.8735  163.6327 C.ar    1  UNL1        0.0207
     33 C         140.3973  142.6036  168.0655 C.3     1  UNL1        0.3242
     34 F         140.0725  144.0636  168.1782 F       1  UNL1       -0.2176
     35 C         140.2488  142.4559  169.5508 C.3     1  UNL1        0.4363
     36 F         140.1002  142.3081  171.0361 F       1  UNL1       -0.1666
     37 F         141.2178  143.5816  169.7596 F       1  UNL1       -0.1666
     38 F         139.2689  141.3205  169.5246 F       1  UNL1       -0.1666
     39 C         140.7222  141.1435  167.9528 C.3     1  UNL1        0.4363
     40 F         141.0470  139.6834  167.8401 F       1  UNL1       -0.1666
     41 F         142.0078  141.1821  168.7244 F       1  UNL1       -0.1666
     42 F         139.5826  140.5785  167.1577 F       1  UNL1       -0.1666
@<TRIPOS>BOND
     1    18    19    1
     2    19    20    1
     3    19    21    1
     4    19    14    1
     5    14    15    2
     6    14    16   am
     7     1    16    1
     8     1     2    1
     9     2     3    1
    10     3     4    1
    11     4    23    1
    12    23    24    2
    13    23    25    2
    14    23    26    1
    15    26    27   ar
    16    27    28   ar
    17    28    29   ar
    18    29    30    1
    19    29    31   ar
    20    31    32   ar
    21     4     5    1
    22     5     6   ar
    23     6     7   ar
    24     7     8   ar
    25     8    33    1
    26    33    34    1
    27    33    35    1
    28    35    36    1
    29    35    37    1
    30    35    38    1
    31    33    39    1
    32    39    40    1
    33    39    41    1
    34    39    42    1
    35     8     9   ar
    36     9    10   ar
    37    10    11    1
    38    11    12    1
    39    13    12    1
    40    13     1    1
    41    13     4    1
    42    32    26   ar
    43    10     5   ar
    44    21    22    1
    45    16    17    1
@<TRIPOS>MOLECULE
*****
 42 45 0 0 0
SMALL
GASTEIGER

@<TRIPOS>ATOM
      1 C         140.7373  139.2937  159.5452 C.3     1  UNL1        0.0736
      2 C         141.5474  140.5540  159.4722 C.3     1  UNL1        0.0217
      3 C         141.7394  141.0632  160.8700 C.3     1  UNL1        0.0282
      4 C         141.0479  140.1176  161.8068 C.3     1  UNL1        0.1348
      5 C         140.9021  140.1111  163.2998 C.ar    1  UNL1       -0.0061
      6 C         141.5215  141.2047  164.1185 C.ar    1  UNL1       -0.0032
      7 C         141.3757  141.1982  165.6114 C.ar    1  UNL1       -0.0015
      8 C         140.6106  140.0981  166.2855 C.ar    1  UNL1        0.0232
      9 C         139.9913  139.0045  165.4667 C.ar    1  UNL1       -0.0057
     10 C         140.1370  139.0110  163.9738 C.ar    1  UNL1       -0.0248
     11 C         139.5177  137.9174  163.1550 C.3     1  UNL1        0.0262
     12 C         139.6634  137.9239  161.6621 C.3     1  UNL1        0.0083
     13 C         140.4285  139.0240  160.9880 C.3     1  UNL1        0.0429
     14 C         141.3297  137.6632  157.6112 C.2     1  UNL1        0.2465
     15 O         142.7753  137.7180  158.0079 O.2     1  UNL1       -0.2726
     16 N         140.3107  138.4510  158.3798 N.am    1  UNL1       -0.3040
     17 H         139.3619  138.4151  158.1194 H       1  UNL1        0.1494
     18 C         139.5833  137.5324  156.4142 C.3     1  UNL1        0.0387
     19 C         140.9033  136.8205  156.4458 C.3     1  UNL1        0.1563
     20 C         142.2232  136.1087  156.4775 C.3     1  UNL1        0.0387
     21 O         140.4767  135.9779  155.2804 O.3     1  UNL1       -0.3781
     22 H         141.1895  135.3622  155.0485 H       1  UNL1        0.2109
     23 S         141.7188  141.2720  162.4903 S.O2    1  UNL1        0.0090
     24 O         142.4559  141.0068  162.6379 O.2     1  UNL1       -0.1684
     25 O         140.4567  142.0742  162.3746 O.2     1  UNL1       -0.1684
     26 C         142.3898  142.4264  163.1739 C.ar    1  UNL1        0.1060
     27 C         143.7777  142.2703  163.7209 C.ar    1  UNL1        0.0207
     28 C         144.4487  143.4246  164.4044 C.ar    1  UNL1        0.0310
     29 C         143.7318  144.7351  164.5409 C.ar    1  UNL1        0.1402
     30 F         144.4028  145.8895  165.2245 F       1  UNL1       -0.2042
     31 C         142.3438  144.8912  163.9939 C.ar    1  UNL1        0.0310
     32 C         141.6729  143.7369  163.3104 C.ar    1  UNL1        0.0207
     33 C         140.4649  140.0916  167.7784 C.3     1  UNL1        0.3242
     34 F         139.0116  139.7490  167.6350 F       1  UNL1       -0.2176
     35 C         140.3191  140.0851  169.2713 C.3     1  UNL1        0.4363
     36 F         140.1733  140.0786  170.7642 F       1  UNL1       -0.1666
     37 F         139.1591  141.0298  169.1621 F       1  UNL1       -0.1666
     38 F         141.4527  139.1466  169.5616 F       1  UNL1       -0.1666
     39 C         141.9181  140.4342  167.9218 C.3     1  UNL1        0.4363
     40 F         143.3715  140.7768  168.0652 F       1  UNL1       -0.1666
     41 F         141.7272  141.7736  168.5694 F       1  UNL1       -0.1666
     42 F         142.6297  139.2485  167.3405 F       1  UNL1       -0.1666
@<TRIPOS>BOND
     1    18    19    1
     2    19    20    1
     3    19    21    1
     4    19    14    1
     5    14    15    2
     6    14    16   am
     7     1    16    1
     8     1     2    1
     9     2     3    1
    10     3     4    1
    11     4    23    1
    12    23    24    2
    13    23    25    2
    14    23    26    1
    15    26    27   ar
    16    27    28   ar
    17    28    29   ar
    18    29    30    1
    19    29    31   ar
    20    31    32   ar
    21     4     5    1
    22     5     6   ar
    23     6     7   ar
    24     7     8   ar
    25     8    33    1
    26    33    34    1
    27    33    35    1
    28    35    36    1
    29    35    37    1
    30    35    38    1
    31    33    39    1
    32    39    40    1
    33    39    41    1
    34    39    42    1
    35     8     9   ar
    36     9    10   ar
    37    10    11    1
    38    11    12    1
    39    13    12    1
    40    13     1    1
    41    13     4    1
    42    32    26   ar
    43    10     5   ar
    44    21    22    1
    45    16    17    1
@<TRIPOS>MOLECULE
*****
 42 45 0 0 0
SMALL
GASTEIGER

@<TRIPOS>ATOM
      1 C         139.8941  139.0625  160.0649 C.3     1  UNL1        0.0736
      2 C         139.1942  140.3877  160.1282 C.3     1  UNL1        0.0217
      3 C         139.3383  140.9218  161.5225 C.3     1  UNL1        0.0282
      4 C         140.1272  139.9266  162.3208 C.3     1  UNL1        0.1348
      5 C         140.5771  139.9184  163.7518 C.ar    1  UNL1       -0.0061
      6 C         140.2336  141.0675  164.6526 C.ar    1  UNL1       -0.0032
      7 C         140.6836  141.0592  166.0835 C.ar    1  UNL1       -0.0015
      8 C         141.4771  139.9018  166.6135 C.ar    1  UNL1        0.0232
      9 C         141.8206  138.7527  165.7126 C.ar    1  UNL1       -0.0057
     10 C         141.3706  138.7610  164.2818 C.ar    1  UNL1       -0.0248
     11 C         141.7141  137.6119  163.3808 C.3     1  UNL1        0.0262
     12 C         141.2641  137.6202  161.9500 C.3     1  UNL1        0.0083
     13 C         140.4707  138.7775  161.4200 C.3     1  UNL1        0.0429
     14 C         141.2437  138.1947  158.0215 C.2     1  UNL1        0.2465
     15 O         142.3837  139.0967  158.3914 O.2     1  UNL1       -0.2726
     16 N         139.9989  138.1776  158.8582 N.am    1  UNL1       -0.3040
     17 H         139.2507  137.5855  158.6154 H       1  UNL1        0.1494
     18 C         139.9965  137.7718  156.3586 C.3     1  UNL1        0.0387
     19 C         141.3487  137.3098  156.8148 C.3     1  UNL1        0.1563
     20 C         142.7008  136.8479  157.2711 C.3     1  UNL1        0.0387
     21 O         141.4535  136.4250  155.6082 O.3     1  UNL1       -0.3781
     22 H         142.3005  135.9526  155.6262 H       1  UNL1        0.2109
     23 S         139.7105  141.1398  163.0984 S.O2    1  UNL1        0.0090
     24 O         140.2978  141.6630  162.9688 O.2     1  UNL1       -0.1684
     25 O         138.4677  140.4277  163.5436 O.2     1  UNL1       -0.1684
     26 C         139.2939  142.3530  163.8760 C.ar    1  UNL1        0.1060
     27 C         137.9148  142.4320  164.4605 C.ar    1  UNL1        0.0207
     28 C         137.4981  143.6452  165.2381 C.ar    1  UNL1        0.0310
     29 C         138.4606  144.7793  165.4311 C.ar    1  UNL1        0.1402
     30 F         138.0440  145.9926  166.2087 F       1  UNL1       -0.2042
     31 C         139.8398  144.7003  164.8465 C.ar    1  UNL1        0.0310
     32 C         140.2563  143.4872  164.0690 C.ar    1  UNL1        0.0207
     33 C         141.9270  139.8936  168.0444 C.3     1  UNL1        0.3242
     34 F         143.2877  139.4321  167.6138 F       1  UNL1       -0.2176
     35 C         142.3770  139.8853  169.4753 C.3     1  UNL1        0.4363
     36 F         142.8270  139.8770  170.9062 F       1  UNL1       -0.1666
     37 F         143.4477  140.8822  169.1443 F       1  UNL1       -0.1666
     38 F         141.3691  138.8948  169.9783 F       1  UNL1       -0.1666
     39 C         140.5663  140.3550  168.4750 C.3     1  UNL1        0.4363
     40 F         139.2055  140.8165  168.9056 F       1  UNL1       -0.1666
     41 F         141.0075  141.6185  169.1523 F       1  UNL1       -0.1666
     42 F         139.6435  139.2864  167.9684 F       1  UNL1       -0.1666
@<TRIPOS>BOND
     1    18    19    1
     2    19    20    1
     3    19    21    1
     4    19    14    1
     5    14    15    2
     6    14    16   am
     7     1    16    1
     8     1     2    1
     9     2     3    1
    10     3     4    1
    11     4    23    1
    12    23    24    2
    13    23    25    2
    14    23    26    1
    15    26    27   ar
    16    27    28   ar
    17    28    29   ar
    18    29    30    1
    19    29    31   ar
    20    31    32   ar
    21     4     5    1
    22     5     6   ar
    23     6     7   ar
    24     7     8   ar
    25     8    33    1
    26    33    34    1
    27    33    35    1
    28    35    36    1
    29    35    37    1
    30    35    38    1
    31    33    39    1
    32    39    40    1
    33    39    41    1
    34    39    42    1
    35     8     9   ar
    36     9    10   ar
    37    10    11    1
    38    11    12    1
    39    13    12    1
    40    13     1    1
    41    13     4    1
    42    32    26   ar
    43    10     5   ar
    44    21    22    1
    45    16    17    1
@<TRIPOS>MOLECULE
*****
 42 45 0 0 0
SMALL
GASTEIGER

@<TRIPOS>ATOM
      1 C         138.3002  141.2123  157.5757 C.3     1  UNL1        0.0736
      2 C         137.7633  142.4448  158.2411 C.3     1  UNL1        0.0217
      3 C         138.2507  142.4553  159.6597 C.3     1  UNL1        0.0282
      4 C         139.0888  141.2293  159.8710 C.3     1  UNL1        0.1348
      5 C         139.8280  140.7133  161.0698 C.ar    1  UNL1       -0.0061
      6 C         139.7974  141.4815  162.3578 C.ar    1  UNL1       -0.0032
      7 C         140.5367  140.9654  163.5566 C.ar    1  UNL1       -0.0015
      8 C         141.3065  139.6811  163.4674 C.ar    1  UNL1        0.0232
      9 C         141.3371  138.9129  162.1794 C.ar    1  UNL1       -0.0057
     10 C         140.5979  139.4290  160.9806 C.ar    1  UNL1       -0.0248
     11 C         140.6285  138.6608  159.6926 C.3     1  UNL1        0.0262
     12 C         139.8892  139.1769  158.4938 C.3     1  UNL1        0.0083
     13 C         139.1194  140.4612  158.5830 C.3     1  UNL1        0.0429
     14 C         136.6970  140.3474  155.7233 C.2     1  UNL1        0.2465
     15 O         135.5741  140.3012  156.7167 O.2     1  UNL1       -0.2726
     16 N         138.0601  140.8029  156.1527 N.am    1  UNL1       -0.3040
     17 H         138.7971  140.8332  155.5007 H       1  UNL1        0.1494
     18 C         137.8949  139.5305  154.1749 C.3     1  UNL1        0.0387
     19 C         136.4568  139.9379  154.3003 C.3     1  UNL1        0.1563
     20 C         135.0187  140.3454  154.4258 C.3     1  UNL1        0.0387
     21 O         136.2167  139.5285  152.8774 O.3     1  UNL1       -0.3781
     22 H         135.2881  139.6887  152.6471 H       1  UNL1        0.2109
     23 S         138.9672  142.1020  161.0849 S.O2    1  UNL1        0.0090
     24 O         139.5970  142.5884  161.0366 O.2     1  UNL1       -0.1684
     25 O         137.7157  141.3764  161.4813 O.2     1  UNL1       -0.1684
     26 C         138.8458  142.9747  162.2989 C.ar    1  UNL1        0.1060
     27 C         137.7245  142.7557  163.2708 C.ar    1  UNL1        0.0207
     28 C         137.6030  143.6284  164.4847 C.ar    1  UNL1        0.0310
     29 C         138.6028  144.7200  164.7268 C.ar    1  UNL1        0.1402
     30 F         138.4813  145.5928  165.9408 F       1  UNL1       -0.2042
     31 C         139.7241  144.9390  163.7548 C.ar    1  UNL1        0.0310
     32 C         139.8456  144.0664  162.5409 C.ar    1  UNL1        0.0207
     33 C         142.0458  139.1650  164.6663 C.3     1  UNL1        0.3242
     34 F         143.1248  140.1818  164.4386 F       1  UNL1       -0.2176
     35 C         142.7851  138.6490  165.8651 C.3     1  UNL1        0.4363
     36 F         143.5243  138.1330  167.0640 F       1  UNL1       -0.1666
     37 F         143.9875  138.3826  165.0089 F       1  UNL1       -0.1666
     38 F         141.6817  138.8505  166.8610 F       1  UNL1       -0.1666
     39 C         140.9668  138.1482  164.8940 C.3     1  UNL1        0.4363
     40 F         139.8878  137.1314  165.1217 F       1  UNL1       -0.1666
     41 F         141.8103  136.9306  164.6582 F       1  UNL1       -0.1666
     42 F         139.7524  138.9714  165.2067 F       1  UNL1       -0.1666
@<TRIPOS>BOND
     1    18    19    1
     2    19    20    1
     3    19    21    1
     4    19    14    1
     5    14    15    2
     6    14    16   am
     7     1    16    1
     8     1     2    1
     9     2     3    1
    10     3     4    1
    11     4    23    1
    12    23    24    2
    13    23    25    2
    14    23    26    1
    15    26    27   ar
    16    27    28   ar
    17    28    29   ar
    18    29    30    1
    19    29    31   ar
    20    31    32   ar
    21     4     5    1
    22     5     6   ar
    23     6     7   ar
    24     7     8   ar
    25     8    33    1
    26    33    34    1
    27    33    35    1
    28    35    36    1
    29    35    37    1
    30    35    38    1
    31    33    39    1
    32    39    40    1
    33    39    41    1
    34    39    42    1
    35     8     9   ar
    36     9    10   ar
    37    10    11    1
    38    11    12    1
    39    13    12    1
    40    13     1    1
    41    13     4    1
    42    32    26   ar
    43    10     5   ar
    44    21    22    1
    45    16    17    1
@<TRIPOS>MOLECULE
*****
 42 45 0 0 0
SMALL
GASTEIGER

@<TRIPOS>ATOM
      1 C         142.2450  145.0038  157.4794 C.3     1  UNL1        0.0736
      2 C         141.0933  145.6704  158.1716 C.3     1  UNL1        0.0217
      3 C         140.8707  144.9707  159.4796 C.3     1  UNL1        0.0282
      4 C         141.8849  143.8717  159.5958 C.3     1  UNL1        0.1348
      5 C         142.1447  142.8549  160.6676 C.ar    1  UNL1       -0.0061
      6 C         141.2954  142.8345  161.9037 C.ar    1  UNL1       -0.0032
      7 C         141.5552  141.8177  162.9755 C.ar    1  UNL1       -0.0015
      8 C         142.6644  140.8214  162.8111 C.ar    1  UNL1        0.0232
      9 C         143.5138  140.8418  161.5749 C.ar    1  UNL1       -0.0057
     10 C         143.2539  141.8586  160.5032 C.ar    1  UNL1       -0.0248
     11 C         144.1033  141.8790  159.2669 C.3     1  UNL1        0.0262
     12 C         143.8434  142.8958  158.1952 C.3     1  UNL1        0.0083
     13 C         142.7342  143.8921  158.3596 C.3     1  UNL1        0.0429
     14 C         142.2104  144.8158  154.8884 C.2     1  UNL1        0.2465
     15 O         141.0487  143.8706  154.9725 O.2     1  UNL1       -0.2726
     16 N         142.8086  145.3824  156.1418 N.am    1  UNL1       -0.3040
     17 H         143.5710  146.0027  156.0865 H       1  UNL1        0.1494
     18 C         141.4932  145.8969  153.2102 C.3     1  UNL1        0.0387
     19 C         142.7739  145.1943  153.5507 C.3     1  UNL1        0.1563
     20 C         144.0546  144.4917  153.8914 C.3     1  UNL1        0.0387
     21 O         143.3373  145.5729  152.2131 O.3     1  UNL1       -0.3781
     22 H         144.2396  145.2261  152.1324 H       1  UNL1        0.2109
     23 S         140.9576  143.9729  160.7704 S.O2    1  UNL1        0.0090
     24 O         140.3376  143.5150  160.5667 O.2     1  UNL1       -0.1684
     25 O         141.9285  144.8859  161.4584 O.2     1  UNL1       -0.1684
     26 C         140.0301  144.0740  161.9451 C.ar    1  UNL1        0.1060
     27 C         138.7044  143.3731  161.9164 C.ar    1  UNL1        0.0207
     28 C         137.7769  143.4742  163.0910 C.ar    1  UNL1        0.0310
     29 C         138.1754  144.2763  164.2943 C.ar    1  UNL1        0.1402
     30 F         137.2480  144.3774  165.4689 F       1  UNL1       -0.2042
     31 C         139.5013  144.9772  164.3230 C.ar    1  UNL1        0.0310
     32 C         140.4286  144.8761  163.1484 C.ar    1  UNL1        0.0207
     33 C         142.9242  139.8046  163.8829 C.3     1  UNL1        0.3242
     34 F         142.4932  138.7116  162.9504 F       1  UNL1       -0.2176
     35 C         143.1840  138.7878  164.9546 C.3     1  UNL1        0.4363
     36 F         143.4439  137.7710  166.0264 F       1  UNL1       -0.1666
     37 F         141.7600  138.3259  164.8616 F       1  UNL1       -0.1666
     38 F         144.6291  139.1224  165.1776 F       1  UNL1       -0.1666
     39 C         143.3552  140.8976  164.8153 C.3     1  UNL1        0.4363
     40 F         143.7863  141.9907  165.7478 F       1  UNL1       -0.1666
     41 F         142.2759  140.7014  165.8383 F       1  UNL1       -0.1666
     42 F         144.5661  141.4842  164.1520 F       1  UNL1       -0.1666
@<TRIPOS>BOND
     1    18    19    1
     2    19    20    1
     3    19    21    1
     4    19    14    1
     5    14    15    2
     6    14    16   am
     7     1    16    1
     8     1     2    1
     9     2     3    1
    10     3     4    1
    11     4    23    1
    12    23    24    2
    13    23    25    2
    14    23    26    1
    15    26    27   ar
    16    27    28   ar
    17    28    29   ar
    18    29    30    1
    19    29    31   ar
    20    31    32   ar
    21     4     5    1
    22     5     6   ar
    23     6     7   ar
    24     7     8   ar
    25     8    33    1
    26    33    34    1
    27    33    35    1
    28    35    36    1
    29    35    37    1
    30    35    38    1
    31    33    39    1
    32    39    40    1
    33    39    41    1
    34    39    42    1
    35     8     9   ar
    36     9    10   ar
    37    10    11    1
    38    11    12    1
    39    13    12    1
    40    13     1    1
    41    13     4    1
    42    32    26   ar
    43    10     5   ar
    44    21    22    1
    45    16    17    1
