@<TRIPOS>MOLECULE
*****
 35 39 0 0 0
SMALL
GASTEIGER

@<TRIPOS>ATOM
      1 C         142.5314  137.0721  157.1829 C.ar    1  UNL1        0.1020
      2 C         141.1005  137.2609  156.7743 C.ar    1  UNL1        0.0205
      3 C         140.2077  138.1688  157.5672 C.ar    1  UNL1        0.0002
      4 C         140.7458  138.8879  158.7687 C.ar    1  UNL1        0.0130
      5 C         142.1767  138.6991  159.1772 C.ar    1  UNL1        0.0959
      6 N         143.0695  137.7912  158.3842 N.ar    1  UNL1       -0.2425
      7 N         144.5623  136.7362  155.5977 N.2     1  UNL1       -0.0815
      8 C         143.4242  136.1643  156.3900 C.2     1  UNL1        0.1369
      9 C         143.1789  134.6845  156.3893 C.ar    1  UNL1        0.0247
     10 C         142.0807  134.1066  155.5466 C.ar    1  UNL1        0.0041
     11 C         141.8355  132.6268  155.5460 C.ar    1  UNL1        0.0320
     12 C         142.6883  131.7248  156.3880 C.ar    1  UNL1        0.1674
     13 F         142.4430  130.2450  156.3873 F       1  UNL1       -0.2018
     14 C         143.7865  132.3027  157.2307 C.ar    1  UNL1        0.1674
     15 F         144.6393  131.4007  158.0728 F       1  UNL1       -0.2018
     16 C         144.0318  133.7825  157.2314 C.ar    1  UNL1        0.0336
     17 O         144.8076  138.2160  155.5984 O.2     1  UNL1       -0.3773
     18 C         143.0134  139.9688  154.9214 C.3     1  UNL1        0.0543
     19 C         144.1671  139.0829  154.5552 C.3     1  UNL1        0.2386
     20 C         139.8530  139.7958  159.5615 C.3     1  UNL1        0.1007
     21 N         139.6166  139.5298  161.0188 N.3     1  UNL1       -0.2687
     22 C         140.0566  140.5315  162.0450 C.3     1  UNL1        0.0751
     23 C         139.8202  140.2655  163.5021 C.3     1  UNL1        0.0489
     24 C         139.1438  138.9979  163.9331 C.3     1  UNL1        0.1157
     25 C         138.7038  137.9963  162.9069 C.3     1  UNL1        0.0489
     26 C         138.9402  138.2623  161.4497 C.3     1  UNL1        0.0751
     27 O         138.4834  137.7817  164.5116 O.3     1  UNL1       -0.3496
     28 C         138.4577  137.9336  166.0037 C.3     1  UNL1        0.1687
     29 C         139.1023  139.2438  166.3474 C.ar    1  UNL1        0.0108
     30 C         139.3579  139.9229  167.6602 C.ar    1  UNL1        0.0476
     31 C         140.0375  141.2596  167.6934 C.ar    1  UNL1        0.2221
     32 F         140.2931  141.9386  169.0062 F       1  UNL1       -0.1832
     33 N         140.4615  141.9174  166.4137 N.ar    1  UNL1       -0.2167
     34 C         140.2059  141.2384  165.1009 C.ar    1  UNL1        0.0990
     35 C         139.5263  139.9016  165.0677 C.ar    1  UNL1        0.0198
@<TRIPOS>BOND
     1    18    19    1
     2    19    17    1
     3    17     7    1
     4     7     8    2
     5     8     9    1
     6     9    10   ar
     7    10    11   ar
     8    11    12   ar
     9    12    13    1
    10    12    14   ar
    11    14    15    1
    12    14    16   ar
    13     8     1    1
    14     1     2   ar
    15     2     3   ar
    16     3     4   ar
    17     4    20    1
    18    20    21    1
    19    21    22    1
    20    22    23    1
    21    23    24    1
    22    24    25    1
    23    25    26    1
    24    24    27    1
    25    27    28    1
    26    28    29    1
    27    29    30   ar
    28    30    31   ar
    29    31    32    1
    30    31    33   ar
    31    33    34   ar
    32    34    35   ar
    33     4     5   ar
    34     5     6   ar
    35    16     9   ar
    36     6     1   ar
    37    26    21    1
    38    35    29   ar
    39    35    24    1
@<TRIPOS>MOLECULE
*****
 35 39 0 0 0
SMALL
GASTEIGER

@<TRIPOS>ATOM
      1 C         139.0066  139.5432  168.1711 C.ar    1  UNL1        0.1020
      2 C         140.0764  139.8152  167.1554 C.ar    1  UNL1        0.0205
      3 C         139.9855  139.2044  165.7885 C.ar    1  UNL1        0.0002
      4 C         138.8249  138.3215  165.4371 C.ar    1  UNL1        0.0130
      5 C         137.7551  138.0495  166.4527 C.ar    1  UNL1        0.0959
      6 N         137.8460  138.6603  167.8198 N.ar    1  UNL1       -0.2425
      7 N         138.0796  139.8068  170.5838 N.2     1  UNL1       -0.0815
      8 C         139.0974  140.1540  169.5380 C.2     1  UNL1        0.1369
      9 C         140.2060  141.1120  169.8593 C.ar    1  UNL1        0.0247
     10 C         141.5835  140.5946  170.1504 C.ar    1  UNL1        0.0041
     11 C         142.6921  141.5526  170.4716 C.ar    1  UNL1        0.0320
     12 C         142.4233  143.0280  170.5018 C.ar    1  UNL1        0.1674
     13 F         143.5319  143.9860  170.8231 F       1  UNL1       -0.2018
     14 C         141.0457  143.5454  170.2108 C.ar    1  UNL1        0.1674
     15 F         140.7768  145.0208  170.2410 F       1  UNL1       -0.2018
     16 C         139.9371  142.5874  169.8895 C.ar    1  UNL1        0.0336
     17 O         136.9710  138.8488  170.2625 O.2     1  UNL1       -0.3773
     18 C         136.2023  137.2593  172.1685 C.3     1  UNL1        0.0543
     19 C         135.9739  138.4741  171.3187 C.3     1  UNL1        0.2386
     20 C         138.7340  137.7107  164.0701 C.3     1  UNL1        0.1007
     21 N         138.7113  138.5906  162.8555 N.3     1  UNL1       -0.2687
     22 C         139.1991  138.0638  161.5385 C.3     1  UNL1        0.0751
     23 C         139.1763  138.9437  160.3239 C.3     1  UNL1        0.0489
     24 C         138.6657  140.3504  160.4263 C.3     1  UNL1        0.1157
     25 C         138.1779  140.8772  161.7433 C.3     1  UNL1        0.0489
     26 C         138.2007  139.9973  162.9579 C.3     1  UNL1        0.0751
     27 O         138.1860  141.7707  160.3754 O.3     1  UNL1       -0.3496
     28 C         138.3424  142.2626  158.9669 C.3     1  UNL1        0.1687
     29 C         138.9189  141.1462  158.1474 C.ar    1  UNL1        0.0108
     30 C         139.2877  141.0531  156.6964 C.ar    1  UNL1        0.0476
     31 C         139.8562  139.7783  156.1474 C.ar    1  UNL1        0.2221
     32 F         140.2250  139.6852  154.6965 F       1  UNL1       -0.1832
     33 N         140.0560  138.5965  157.0493 N.ar    1  UNL1       -0.2167
     34 C         139.6872  138.6896  158.5003 C.ar    1  UNL1        0.0990
     35 C         139.1187  139.9645  159.0493 C.ar    1  UNL1        0.0198
@<TRIPOS>BOND
     1    18    19    1
     2    19    17    1
     3    17     7    1
     4     7     8    2
     5     8     9    1
     6     9    10   ar
     7    10    11   ar
     8    11    12   ar
     9    12    13    1
    10    12    14   ar
    11    14    15    1
    12    14    16   ar
    13     8     1    1
    14     1     2   ar
    15     2     3   ar
    16     3     4   ar
    17     4    20    1
    18    20    21    1
    19    21    22    1
    20    22    23    1
    21    23    24    1
    22    24    25    1
    23    25    26    1
    24    24    27    1
    25    27    28    1
    26    28    29    1
    27    29    30   ar
    28    30    31   ar
    29    31    32    1
    30    31    33   ar
    31    33    34   ar
    32    34    35   ar
    33     4     5   ar
    34     5     6   ar
    35    16     9   ar
    36     6     1   ar
    37    26    21    1
    38    35    29   ar
    39    35    24    1
@<TRIPOS>MOLECULE
*****
 35 39 0 0 0
SMALL
GASTEIGER

@<TRIPOS>ATOM
      1 C         138.9180  139.5350  168.1733 C.ar    1  UNL1        0.1020
      2 C         139.9267  139.9202  167.1322 C.ar    1  UNL1        0.0205
      3 C         139.8523  139.3227  165.7584 C.ar    1  UNL1        0.0002
      4 C         138.7691  138.3397  165.4257 C.ar    1  UNL1        0.0130
      5 C         137.7604  137.9544  166.4669 C.ar    1  UNL1        0.0959
      6 N         137.8349  138.5521  167.8408 N.ar    1  UNL1       -0.2425
      7 N         137.9483  139.7945  170.5697 N.2     1  UNL1       -0.0815
      8 C         138.9925  140.1325  169.5471 C.2     1  UNL1        0.1369
      9 C         140.1111  141.0682  169.8984 C.ar    1  UNL1        0.0247
     10 C         141.4519  140.5209  170.2890 C.ar    1  UNL1        0.0041
     11 C         142.5705  141.4565  170.6403 C.ar    1  UNL1        0.0320
     12 C         142.3482  142.9394  170.6010 C.ar    1  UNL1        0.1674
     13 F         143.4668  143.8750  170.9523 F       1  UNL1       -0.2018
     14 C         141.0073  143.4867  170.2104 C.ar    1  UNL1        0.1674
     15 F         140.7850  144.9696  170.1712 F       1  UNL1       -0.2018
     16 C         139.8887  142.5511  169.8591 C.ar    1  UNL1        0.0336
     17 O         136.8297  138.8589  170.2184 O.2     1  UNL1       -0.3773
     18 C         135.3916  138.3859  172.3297 C.3     1  UNL1        0.0543
     19 C         136.3050  137.8987  171.2443 C.3     1  UNL1        0.2386
     20 C         138.6946  137.7421  164.0520 C.3     1  UNL1        0.1007
     21 N         139.3523  138.4355  162.8958 N.3     1  UNL1       -0.2687
     22 C         138.7339  139.6712  162.3120 C.3     1  UNL1        0.0751
     23 C         139.3916  140.3645  161.1559 C.3     1  UNL1        0.0489
     24 C         140.6676  139.8222  160.5835 C.3     1  UNL1        0.1157
     25 C         141.2860  138.5866  161.1672 C.3     1  UNL1        0.0489
     26 C         140.6283  137.8932  162.3233 C.3     1  UNL1        0.0751
     27 O         141.9390  139.3993  159.9092 O.3     1  UNL1       -0.3496
     28 C         142.2265  140.3760  158.8075 C.3     1  UNL1        0.1687
     29 C         141.1327  141.4025  158.8010 C.ar    1  UNL1        0.0108
     30 C         140.8896  142.6046  157.9374 C.ar    1  UNL1        0.0476
     31 C         139.6831  143.4645  158.1714 C.ar    1  UNL1        0.2221
     32 F         139.4399  144.6666  157.3078 F       1  UNL1       -0.1832
     33 N         138.7196  143.1223  159.2690 N.ar    1  UNL1       -0.2167
     34 C         138.9627  141.9202  160.1325 C.ar    1  UNL1        0.0990
     35 C         140.1693  141.0603  159.8985 C.ar    1  UNL1        0.0198
@<TRIPOS>BOND
     1    18    19    1
     2    19    17    1
     3    17     7    1
     4     7     8    2
     5     8     9    1
     6     9    10   ar
     7    10    11   ar
     8    11    12   ar
     9    12    13    1
    10    12    14   ar
    11    14    15    1
    12    14    16   ar
    13     8     1    1
    14     1     2   ar
    15     2     3   ar
    16     3     4   ar
    17     4    20    1
    18    20    21    1
    19    21    22    1
    20    22    23    1
    21    23    24    1
    22    24    25    1
    23    25    26    1
    24    24    27    1
    25    27    28    1
    26    28    29    1
    27    29    30   ar
    28    30    31   ar
    29    31    32    1
    30    31    33   ar
    31    33    34   ar
    32    34    35   ar
    33     4     5   ar
    34     5     6   ar
    35    16     9   ar
    36     6     1   ar
    37    26    21    1
    38    35    29   ar
    39    35    24    1
@<TRIPOS>MOLECULE
*****
 35 39 0 0 0
SMALL
GASTEIGER

@<TRIPOS>ATOM
      1 C         140.9910  139.0479  159.8915 C.ar    1  UNL1        0.1020
      2 C         140.9995  140.5090  160.2305 C.ar    1  UNL1        0.0205
      3 C         140.1787  141.0173  161.3786 C.ar    1  UNL1        0.0002
      4 C         139.3495  140.0644  162.1876 C.ar    1  UNL1        0.0130
      5 C         139.3410  138.6033  161.8485 C.ar    1  UNL1        0.0959
      6 N         140.1618  138.0950  160.7004 N.ar    1  UNL1       -0.2425
      7 N         143.3071  138.4948  158.8523 N.2     1  UNL1       -0.0815
      8 C         141.8117  138.5396  158.7434 C.2     1  UNL1        0.1369
      9 C         141.1371  138.0760  157.4864 C.ar    1  UNL1        0.0247
     10 C         141.6938  136.9117  156.7220 C.ar    1  UNL1        0.0041
     11 C         141.0192  136.4481  155.4651 C.ar    1  UNL1        0.0320
     12 C         139.7878  137.1489  154.9725 C.ar    1  UNL1        0.1674
     13 F         139.1132  136.6853  153.7155 F       1  UNL1       -0.2018
     14 C         139.2310  138.3133  155.7369 C.ar    1  UNL1        0.1674
     15 F         137.9997  139.0140  155.2443 F       1  UNL1       -0.2018
     16 C         139.9057  138.7768  156.9939 C.ar    1  UNL1        0.0336
     17 O         143.9817  138.9584  160.1093 O.2     1  UNL1       -0.3773
     18 C         143.7505  138.6260  162.6756 C.3     1  UNL1        0.0543
     19 C         144.0232  138.0632  161.3122 C.3     1  UNL1        0.2386
     20 C         138.5287  140.5727  163.3356 C.3     1  UNL1        0.1007
     21 N         139.0801  140.5271  164.7299 N.3     1  UNL1       -0.2687
     22 C         140.3223  141.2957  165.0707 C.3     1  UNL1        0.0751
     23 C         140.8736  141.2501  166.4649 C.3     1  UNL1        0.0489
     24 C         140.1827  140.4359  167.5184 C.3     1  UNL1        0.1157
     25 C         138.9404  139.6674  167.1776 C.3     1  UNL1        0.0489
     26 C         138.3892  139.7130  165.7834 C.3     1  UNL1        0.0751
     27 O         139.6037  139.6699  168.6708 O.3     1  UNL1       -0.3496
     28 C         140.4730  139.9089  169.8698 C.3     1  UNL1        0.1687
     29 C         141.5892  140.8227  169.4583 C.ar    1  UNL1        0.0108
     30 C         142.7457  141.4002  170.2191 C.ar    1  UNL1        0.0476
     31 C         143.7228  142.3034  169.5268 C.ar    1  UNL1        0.2221
     32 F         144.8793  142.8810  170.2876 F       1  UNL1       -0.1832
     33 N         143.5434  142.6292  168.0736 N.ar    1  UNL1       -0.2167
     34 C         142.3868  142.0517  167.3128 C.ar    1  UNL1        0.0990
     35 C         141.4097  141.1484  168.0051 C.ar    1  UNL1        0.0198
@<TRIPOS>BOND
     1    18    19    1
     2    19    17    1
     3    17     7    1
     4     7     8    2
     5     8     9    1
     6     9    10   ar
     7    10    11   ar
     8    11    12   ar
     9    12    13    1
    10    12    14   ar
    11    14    15    1
    12    14    16   ar
    13     8     1    1
    14     1     2   ar
    15     2     3   ar
    16     3     4   ar
    17     4    20    1
    18    20    21    1
    19    21    22    1
    20    22    23    1
    21    23    24    1
    22    24    25    1
    23    25    26    1
    24    24    27    1
    25    27    28    1
    26    28    29    1
    27    29    30   ar
    28    30    31   ar
    29    31    32    1
    30    31    33   ar
    31    33    34   ar
    32    34    35   ar
    33     4     5   ar
    34     5     6   ar
    35    16     9   ar
    36     6     1   ar
    37    26    21    1
    38    35    29   ar
    39    35    24    1
@<TRIPOS>MOLECULE
*****
 35 39 0 0 0
SMALL
GASTEIGER

@<TRIPOS>ATOM
      1 C         139.0435  139.9529  168.0181 C.ar    1  UNL1        0.1020
      2 C         139.7091  140.7191  166.9135 C.ar    1  UNL1        0.0205
      3 C         139.5240  140.2923  165.4875 C.ar    1  UNL1        0.0002
      4 C         138.6733  139.0993  165.1660 C.ar    1  UNL1        0.0130
      5 C         138.0078  138.3332  166.2706 C.ar    1  UNL1        0.0959
      6 N         138.1929  138.7600  167.6967 N.ar    1  UNL1       -0.2425
      7 N         138.2753  139.9027  170.4995 N.2     1  UNL1       -0.0815
      8 C         139.2286  140.3797  169.4441 C.2     1  UNL1        0.1369
      9 C         140.3668  141.2836  169.8148 C.ar    1  UNL1        0.0247
     10 C         140.1229  142.7482  170.0274 C.ar    1  UNL1        0.0041
     11 C         141.2612  143.6521  170.3981 C.ar    1  UNL1        0.0320
     12 C         142.6434  143.0912  170.5562 C.ar    1  UNL1        0.1674
     13 F         143.7817  143.9951  170.9269 F       1  UNL1       -0.2018
     14 C         142.8873  141.6265  170.3436 C.ar    1  UNL1        0.1674
     15 F         144.2695  141.0657  170.5017 F       1  UNL1       -0.2018
     16 C         141.7491  140.7227  169.9729 C.ar    1  UNL1        0.0336
     17 O         137.1370  138.9988  170.1289 O.2     1  UNL1       -0.3773
     18 C         136.2810  137.4272  172.0122 C.3     1  UNL1        0.0543
     19 C         136.0991  138.6420  171.1512 C.3     1  UNL1        0.2386
     20 C         138.4882  138.6725  163.7400 C.3     1  UNL1        0.1007
     21 N         138.8238  139.6178  162.6246 N.3     1  UNL1       -0.2687
     22 C         140.1877  139.5882  162.0012 C.3     1  UNL1        0.0751
     23 C         140.5232  140.5334  160.8859 C.3     1  UNL1        0.0489
     24 C         139.4947  141.5082  160.3940 C.3     1  UNL1        0.1157
     25 C         138.1308  141.5378  161.0174 C.3     1  UNL1        0.0489
     26 C         137.7953  140.5926  162.1327 C.3     1  UNL1        0.0751
     27 O         138.5745  142.5330  159.7999 O.3     1  UNL1       -0.3496
     28 C         139.3204  143.2528  158.7156 C.3     1  UNL1        0.1687
     29 C         140.7017  142.6728  158.6396 C.ar    1  UNL1        0.0108
     30 C         141.8753  142.9872  157.7600 C.ar    1  UNL1        0.0476
     31 C         143.1566  142.2235  157.9175 C.ar    1  UNL1        0.2221
     32 F         144.3302  142.5379  157.0379 F       1  UNL1       -0.1832
     33 N         143.2644  141.1453  158.9548 N.ar    1  UNL1       -0.2167
     34 C         142.0908  140.8309  159.8345 C.ar    1  UNL1        0.0990
     35 C         140.8095  141.5947  159.6769 C.ar    1  UNL1        0.0198
@<TRIPOS>BOND
     1    18    19    1
     2    19    17    1
     3    17     7    1
     4     7     8    2
     5     8     9    1
     6     9    10   ar
     7    10    11   ar
     8    11    12   ar
     9    12    13    1
    10    12    14   ar
    11    14    15    1
    12    14    16   ar
    13     8     1    1
    14     1     2   ar
    15     2     3   ar
    16     3     4   ar
    17     4    20    1
    18    20    21    1
    19    21    22    1
    20    22    23    1
    21    23    24    1
    22    24    25    1
    23    25    26    1
    24    24    27    1
    25    27    28    1
    26    28    29    1
    27    29    30   ar
    28    30    31   ar
    29    31    32    1
    30    31    33   ar
    31    33    34   ar
    32    34    35   ar
    33     4     5   ar
    34     5     6   ar
    35    16     9   ar
    36     6     1   ar
    37    26    21    1
    38    35    29   ar
    39    35    24    1
@<TRIPOS>MOLECULE
*****
 35 39 0 0 0
SMALL
GASTEIGER

@<TRIPOS>ATOM
      1 C         139.5560  140.8199  164.9085 C.ar    1  UNL1        0.1020
      2 C         138.3722  141.7368  164.8195 C.ar    1  UNL1        0.0205
      3 C         138.3673  142.8611  163.8266 C.ar    1  UNL1        0.0002
      4 C         139.5462  143.0686  162.9227 C.ar    1  UNL1        0.0130
      5 C         140.7300  142.1517  163.0117 C.ar    1  UNL1        0.0959
      6 N         140.7349  141.0274  164.0046 N.ar    1  UNL1       -0.2425
      7 N         139.1371  138.3201  165.4789 N.2     1  UNL1       -0.0815
      8 C         139.5609  139.6956  165.9014 C.2     1  UNL1        0.1369
      9 C         139.9895  139.9468  167.3167 C.ar    1  UNL1        0.0247
     10 C         138.9670  139.9912  168.4133 C.ar    1  UNL1        0.0041
     11 C         139.3956  140.2424  169.8287 C.ar    1  UNL1        0.0320
     12 C         140.8467  140.4490  170.1474 C.ar    1  UNL1        0.1674
     13 F         141.2753  140.7002  171.5628 F       1  UNL1       -0.2018
     14 C         141.8692  140.4046  169.0508 C.ar    1  UNL1        0.1674
     15 F         143.3203  140.6113  169.3696 F       1  UNL1       -0.2018
     16 C         141.4406  140.1534  167.6354 C.ar    1  UNL1        0.0336
     17 O         138.7085  138.0689  164.0636 O.2     1  UNL1       -0.3773
     18 C         141.0929  137.2165  163.4822 C.3     1  UNL1        0.0543
     19 C         139.7086  137.5992  163.0492 C.3     1  UNL1        0.2386
     20 C         139.5413  144.1929  161.9298 C.3     1  UNL1        0.1007
     21 N         139.4261  143.8982  160.4635 N.3     1  UNL1       -0.2687
     22 C         138.5556  142.7717  159.9911 C.3     1  UNL1        0.0751
     23 C         138.4404  142.4770  158.5249 C.3     1  UNL1        0.0489
     24 C         139.1957  143.3088  157.5311 C.3     1  UNL1        0.1157
     25 C         140.0662  144.4353  158.0035 C.3     1  UNL1        0.0489
     26 C         140.1814  144.7300  159.4697 C.3     1  UNL1        0.0751
     27 O         139.8874  144.0503  156.4257 O.3     1  UNL1       -0.3496
     28 C         139.4878  143.4207  155.1242 C.3     1  UNL1        0.1687
     29 C         138.5491  142.2900  155.4252 C.ar    1  UNL1        0.0108
     30 C         137.8354  141.3144  154.5370 C.ar    1  UNL1        0.0476
     31 C         136.9413  140.2698  155.1362 C.ar    1  UNL1        0.2221
     32 F         136.2276  139.2943  154.2480 F       1  UNL1       -0.1832
     33 N         136.7607  140.2007  156.6238 N.ar    1  UNL1       -0.2167
     34 C         137.4744  141.1762  157.5120 C.ar    1  UNL1        0.0990
     35 C         138.3686  142.2209  156.9127 C.ar    1  UNL1        0.0198
@<TRIPOS>BOND
     1    18    19    1
     2    19    17    1
     3    17     7    1
     4     7     8    2
     5     8     9    1
     6     9    10   ar
     7    10    11   ar
     8    11    12   ar
     9    12    13    1
    10    12    14   ar
    11    14    15    1
    12    14    16   ar
    13     8     1    1
    14     1     2   ar
    15     2     3   ar
    16     3     4   ar
    17     4    20    1
    18    20    21    1
    19    21    22    1
    20    22    23    1
    21    23    24    1
    22    24    25    1
    23    25    26    1
    24    24    27    1
    25    27    28    1
    26    28    29    1
    27    29    30   ar
    28    30    31   ar
    29    31    32    1
    30    31    33   ar
    31    33    34   ar
    32    34    35   ar
    33     4     5   ar
    34     5     6   ar
    35    16     9   ar
    36     6     1   ar
    37    26    21    1
    38    35    29   ar
    39    35    24    1
@<TRIPOS>MOLECULE
*****
 35 39 0 0 0
SMALL
GASTEIGER

@<TRIPOS>ATOM
      1 C         138.6491  141.6818  159.9733 C.ar    1  UNL1        0.1020
      2 C         139.5715  140.5005  159.9136 C.ar    1  UNL1        0.0205
      3 C         139.5757  139.4952  161.0268 C.ar    1  UNL1        0.0002
      4 C         138.6575  139.6713  162.1999 C.ar    1  UNL1        0.0130
      5 C         137.7351  140.8526  162.2596 C.ar    1  UNL1        0.0959
      6 N         137.7309  141.8579  161.1463 N.ar    1  UNL1       -0.2425
      7 N         139.4763  143.9309  158.9694 N.2     1  UNL1       -0.0815
      8 C         138.6449  142.6871  158.8601 C.2     1  UNL1        0.1369
      9 C         137.8093  142.4487  157.6374 C.ar    1  UNL1        0.0247
     10 C         137.1119  141.1340  157.4502 C.ar    1  UNL1        0.0041
     11 C         136.2763  140.8956  156.2276 C.ar    1  UNL1        0.0320
     12 C         136.1380  141.9719  155.1921 C.ar    1  UNL1        0.1674
     13 F         135.3024  141.7335  153.9694 F       1  UNL1       -0.2018
     14 C         136.8354  143.2868  155.3792 C.ar    1  UNL1        0.1674
     15 F         136.6971  144.3631  154.3437 F       1  UNL1       -0.2018
     16 C         137.6710  143.5252  156.6019 C.ar    1  UNL1        0.0336
     17 O         140.3120  144.1693  160.1921 O.2     1  UNL1       -0.3773
     18 C         142.4572  142.7655  160.6130 C.3     1  UNL1        0.0543
     19 C         141.8031  144.0227  160.1217 C.3     1  UNL1        0.2386
     20 C         138.6617  138.6660  163.3131 C.3     1  UNL1        0.1007
     21 N         139.0168  139.0919  164.7070 N.3     1  UNL1       -0.2687
     22 C         140.2922  139.8394  164.9609 C.3     1  UNL1        0.0751
     23 C         140.6472  140.2652  166.3546 C.3     1  UNL1        0.0489
     24 C         139.7267  139.9436  167.4945 C.3     1  UNL1        0.1157
     25 C         138.4512  139.1961  167.2406 C.3     1  UNL1        0.0489
     26 C         138.0963  138.7703  165.8468 C.3     1  UNL1        0.0751
     27 O         138.9096  139.6946  168.7275 O.3     1  UNL1       -0.3496
     28 C         139.6391  140.2903  169.8951 C.3     1  UNL1        0.1687
     29 C         140.9069  140.9076  169.3836 C.ar    1  UNL1        0.0108
     30 C         142.0191  141.6371  170.0771 C.ar    1  UNL1        0.0476
     31 C         143.1853  142.1523  169.2870 C.ar    1  UNL1        0.2221
     32 F         144.2975  142.8818  169.9805 F       1  UNL1       -0.1832
     33 N         143.2395  141.9380  167.8033 N.ar    1  UNL1       -0.2167
     34 C         142.1274  141.2085  167.1098 C.ar    1  UNL1        0.0990
     35 C         140.9611  140.6933  167.9000 C.ar    1  UNL1        0.0198
@<TRIPOS>BOND
     1    18    19    1
     2    19    17    1
     3    17     7    1
     4     7     8    2
     5     8     9    1
     6     9    10   ar
     7    10    11   ar
     8    11    12   ar
     9    12    13    1
    10    12    14   ar
    11    14    15    1
    12    14    16   ar
    13     8     1    1
    14     1     2   ar
    15     2     3   ar
    16     3     4   ar
    17     4    20    1
    18    20    21    1
    19    21    22    1
    20    22    23    1
    21    23    24    1
    22    24    25    1
    23    25    26    1
    24    24    27    1
    25    27    28    1
    26    28    29    1
    27    29    30   ar
    28    30    31   ar
    29    31    32    1
    30    31    33   ar
    31    33    34   ar
    32    34    35   ar
    33     4     5   ar
    34     5     6   ar
    35    16     9   ar
    36     6     1   ar
    37    26    21    1
    38    35    29   ar
    39    35    24    1
@<TRIPOS>MOLECULE
*****
 35 39 0 0 0
SMALL
GASTEIGER

@<TRIPOS>ATOM
      1 C         144.1393  141.8586  159.5339 C.ar    1  UNL1        0.1020
      2 C         143.5302  140.4889  159.4792 C.ar    1  UNL1        0.0205
      3 C         143.5496  139.6105  160.6949 C.ar    1  UNL1        0.0002
      4 C         144.1781  140.1017  161.9653 C.ar    1  UNL1        0.0130
      5 C         144.7871  141.4714  162.0199 C.ar    1  UNL1        0.0959
      6 N         144.7677  142.3499  160.8042 N.ar    1  UNL1       -0.2425
      7 N         143.2912  143.9875  158.3096 N.2     1  UNL1       -0.0815
      8 C         144.1198  142.7371  158.3182 C.2     1  UNL1        0.1369
      9 C         144.9290  142.3653  157.1112 C.ar    1  UNL1        0.0247
     10 C         144.2399  141.9631  155.8411 C.ar    1  UNL1        0.0041
     11 C         145.0491  141.5913  154.6340 C.ar    1  UNL1        0.0320
     12 C         146.5475  141.6217  154.6971 C.ar    1  UNL1        0.1674
     13 F         147.3567  141.2499  153.4901 F       1  UNL1       -0.2018
     14 C         147.2367  142.0240  155.9673 C.ar    1  UNL1        0.1674
     15 F         148.7350  142.0544  156.0304 F       1  UNL1       -0.2018
     16 C         146.4275  142.3958  157.1743 C.ar    1  UNL1        0.0336
     17 O         142.4820  144.3593  159.5166 O.2     1  UNL1       -0.3773
     18 C         140.0820  144.9557  160.3130 C.3     1  UNL1        0.0543
     19 C         141.2211  145.1561  159.3579 C.3     1  UNL1        0.2386
     20 C         144.1975  139.2232  163.1809 C.3     1  UNL1        0.1007
     21 N         143.1089  139.3378  164.2066 N.3     1  UNL1       -0.2687
     22 C         143.3703  140.0487  165.5013 C.3     1  UNL1        0.0751
     23 C         142.2817  140.1633  166.5269 C.3     1  UNL1        0.0489
     24 C         140.9319  139.5671  166.2578 C.3     1  UNL1        0.1157
     25 C         140.6706  138.8562  164.9630 C.3     1  UNL1        0.0489
     26 C         141.7591  138.7416  163.9374 C.3     1  UNL1        0.0751
     27 O         139.5395  139.0239  166.1301 O.3     1  UNL1       -0.3496
     28 C         138.7916  139.3661  167.3847 C.3     1  UNL1        0.1687
     29 C         139.7218  140.1208  168.2876 C.ar    1  UNL1        0.0108
     30 C         139.5353  140.7109  169.6540 C.ar    1  UNL1        0.0476
     31 C         140.6715  141.4252  170.3239 C.ar    1  UNL1        0.2221
     32 F         140.4850  142.0153  171.6902 F       1  UNL1       -0.1832
     33 N         141.9943  141.5494  169.6275 N.ar    1  UNL1       -0.2167
     34 C         142.1808  140.9593  168.2611 C.ar    1  UNL1        0.0990
     35 C         141.0445  140.2450  167.5912 C.ar    1  UNL1        0.0198
@<TRIPOS>BOND
     1    18    19    1
     2    19    17    1
     3    17     7    1
     4     7     8    2
     5     8     9    1
     6     9    10   ar
     7    10    11   ar
     8    11    12   ar
     9    12    13    1
    10    12    14   ar
    11    14    15    1
    12    14    16   ar
    13     8     1    1
    14     1     2   ar
    15     2     3   ar
    16     3     4   ar
    17     4    20    1
    18    20    21    1
    19    21    22    1
    20    22    23    1
    21    23    24    1
    22    24    25    1
    23    25    26    1
    24    24    27    1
    25    27    28    1
    26    28    29    1
    27    29    30   ar
    28    30    31   ar
    29    31    32    1
    30    31    33   ar
    31    33    34   ar
    32    34    35   ar
    33     4     5   ar
    34     5     6   ar
    35    16     9   ar
    36     6     1   ar
    37    26    21    1
    38    35    29   ar
    39    35    24    1
@<TRIPOS>MOLECULE
*****
 35 39 0 0 0
SMALL
GASTEIGER

@<TRIPOS>ATOM
      1 C         142.2377  136.9874  157.2102 C.ar    1  UNL1        0.1020
      2 C         140.8803  137.2308  156.6201 C.ar    1  UNL1        0.0205
      3 C         139.8868  138.0842  157.3512 C.ar    1  UNL1        0.0002
      4 C         140.2506  138.6942  158.6725 C.ar    1  UNL1        0.0130
      5 C         141.6080  138.4507  159.2625 C.ar    1  UNL1        0.0959
      6 N         142.6016  137.5973  158.5314 N.ar    1  UNL1       -0.2425
      7 N         144.3708  136.7735  155.7425 N.2     1  UNL1       -0.0815
      8 C         143.2313  136.1340  156.4791 C.2     1  UNL1        0.1369
      9 C         143.0854  134.6411  156.4846 C.ar    1  UNL1        0.0247
     10 C         142.0288  133.9877  155.6440 C.ar    1  UNL1        0.0041
     11 C         141.8829  132.4948  155.6495 C.ar    1  UNL1        0.0320
     12 C         142.7936  131.6554  156.4956 C.ar    1  UNL1        0.1674
     13 F         142.6477  130.1625  156.5011 F       1  UNL1       -0.2018
     14 C         143.8502  132.3088  157.3362 C.ar    1  UNL1        0.1674
     15 F         144.7609  131.4693  158.1823 F       1  UNL1       -0.2018
     16 C         143.9961  133.8016  157.3307 C.ar    1  UNL1        0.0336
     17 O         144.5167  138.2664  155.7370 O.2     1  UNL1       -0.3773
     18 C         142.9172  138.4333  153.6965 C.3     1  UNL1        0.0543
     19 C         143.8826  139.0779  154.6465 C.3     1  UNL1        0.2386
     20 C         139.2570  139.5476  159.4036 C.3     1  UNL1        0.1007
     21 N         139.6201  140.1558  160.7258 N.3     1  UNL1       -0.2687
     22 C         139.1933  139.4896  162.0002 C.3     1  UNL1        0.0751
     23 C         139.5564  140.0978  163.3224 C.3     1  UNL1        0.0489
     24 C         140.3462  141.3722  163.3702 C.3     1  UNL1        0.1157
     25 C         140.7730  142.0383  162.0958 C.3     1  UNL1        0.0489
     26 C         140.4099  141.4301  160.7736 C.3     1  UNL1        0.0751
     27 O         141.1278  142.6360  163.5745 O.3     1  UNL1       -0.3496
     28 C         141.2561  142.8683  165.0509 C.3     1  UNL1        0.1687
     29 C         140.5537  141.7479  165.7591 C.ar    1  UNL1        0.0108
     30 C         140.3535  141.4502  167.2156 C.ar    1  UNL1        0.0476
     31 C         139.5910  140.2280  167.6333 C.ar    1  UNL1        0.2221
     32 F         139.3908  139.9303  169.0898 F       1  UNL1       -0.1832
     33 N         139.0286  139.3033  166.5947 N.ar    1  UNL1       -0.2167
     34 C         139.2288  139.6010  165.1382 C.ar    1  UNL1        0.0990
     35 C         139.9913  140.8233  164.7204 C.ar    1  UNL1        0.0198
@<TRIPOS>BOND
     1    18    19    1
     2    19    17    1
     3    17     7    1
     4     7     8    2
     5     8     9    1
     6     9    10   ar
     7    10    11   ar
     8    11    12   ar
     9    12    13    1
    10    12    14   ar
    11    14    15    1
    12    14    16   ar
    13     8     1    1
    14     1     2   ar
    15     2     3   ar
    16     3     4   ar
    17     4    20    1
    18    20    21    1
    19    21    22    1
    20    22    23    1
    21    23    24    1
    22    24    25    1
    23    25    26    1
    24    24    27    1
    25    27    28    1
    26    28    29    1
    27    29    30   ar
    28    30    31   ar
    29    31    32    1
    30    31    33   ar
    31    33    34   ar
    32    34    35   ar
    33     4     5   ar
    34     5     6   ar
    35    16     9   ar
    36     6     1   ar
    37    26    21    1
    38    35    29   ar
    39    35    24    1
