@<TRIPOS>MOLECULE
*****
 29 32 0 0 0
SMALL
GASTEIGER

@<TRIPOS>ATOM
      1 C         144.5330  141.4487  161.4126 C.3     1  UNL1        0.1205
      2 N         143.3849  142.0727  162.1492 N.am    1  UNL1       -0.2493
      3 C         142.6701  143.1755  161.4260 C.2     1  UNL1        0.2581
      4 O         143.1979  143.5084  160.0620 O.2     1  UNL1       -0.2694
      5 C         141.4972  143.9893  161.8866 C.ar    1  UNL1        0.1180
      6 C         141.0883  144.9955  160.8521 C.ar    1  UNL1        0.1476
      7 F         141.8359  145.0834  159.5547 F       1  UNL1       -0.2039
      8 C         139.9316  145.9137  161.1149 C.ar    1  UNL1        0.0323
      9 C         139.1840  145.8257  162.4123 C.ar    1  UNL1        0.0351
     10 C         139.5929  144.8195  163.4468 C.ar    1  UNL1        0.1747
     11 F         138.8453  144.7315  164.7443 F       1  UNL1       -0.2009
     12 C         140.7495  143.9013  163.1840 C.ar    1  UNL1        0.1791
     13 O         140.9901  142.9778  164.3413 O.3     1  UNL1       -0.4496
     14 C         142.0377  141.9141  164.4870 C.ar    1  UNL1        0.1633
     15 C         141.9291  141.2156  165.8099 C.ar    1  UNL1        0.0728
     16 C         142.8863  140.1142  166.1573 C.ar    1  UNL1        0.1316
     17 N         143.9522  139.7114  165.1817 N.ar    1  UNL1       -0.2279
     18 C         144.0607  140.4100  163.8587 C.ar    1  UNL1        0.1182
     19 C         143.1035  141.5113  163.5114 C.ar    1  UNL1        0.1084
     20 N         142.7778  139.4156  167.4803 N.pl3   1  UNL1       -0.3196
     21 H         143.1040  138.4918  167.5773 H       1  UNL1        0.1481
     22 C         142.1723  140.1246  168.6553 C.3     1  UNL1        0.0705
     23 C         142.9903  141.1046  169.4430 C.3     1  UNL1        0.0220
     24 C         142.3848  141.8136  170.6180 C.3     1  UNL1        0.0309
     25 C         140.9612  141.5425  171.0054 C.3     1  UNL1        0.1106
     26 O         140.3557  142.2515  172.1804 O.3     1  UNL1       -0.3845
     27 C         140.1432  140.5625  170.2177 C.3     1  UNL1        0.0309
     28 C         140.7488  139.8535  169.0427 C.3     1  UNL1        0.0220
     29 H         141.0142  142.8447  172.5746 H       1  UNL1        0.2103
@<TRIPOS>BOND
     1     1     2    1
     2     2     3   am
     3     3     4    2
     4     3     5    1
     5     5     6   ar
     6     6     7    1
     7     6     8   ar
     8     8     9   ar
     9     9    10   ar
    10    10    11    1
    11    10    12   ar
    12    12    13    1
    13    13    14    1
    14    14    15   ar
    15    15    16   ar
    16    16    20    1
    17    22    20    1
    18    22    23    1
    19    23    24    1
    20    24    25    1
    21    25    26    1
    22    25    27    1
    23    27    28    1
    24    16    17   ar
    25    17    18   ar
    26    18    19   ar
    27    19     2    1
    28    12     5   ar
    29    19    14   ar
    30    28    22    1
    31    20    21    1
    32    26    29    1
@<TRIPOS>MOLECULE
*****
 29 32 0 0 0
SMALL
GASTEIGER

@<TRIPOS>ATOM
      1 C         138.6342  137.9852  165.7304 C.3     1  UNL1        0.1205
      2 N         139.6918  138.9218  166.2346 N.am    1  UNL1       -0.2493
      3 C         139.4037  139.5808  167.5509 C.2     1  UNL1        0.2581
      4 O         138.0962  139.2162  168.1890 O.2     1  UNL1       -0.2694
      5 C         140.2504  140.5564  168.3134 C.ar    1  UNL1        0.1180
      6 C         139.5883  140.9733  169.5931 C.ar    1  UNL1        0.1476
      7 F         138.2445  140.4160  169.9585 F       1  UNL1       -0.2039
      8 C         140.2700  141.9477  170.5075 C.ar    1  UNL1        0.0323
      9 C         141.6137  142.5051  170.1421 C.ar    1  UNL1        0.0351
     10 C         142.2759  142.0881  168.8624 C.ar    1  UNL1        0.1747
     11 F         143.6197  142.6455  168.4969 F       1  UNL1       -0.2009
     12 C         141.5942  141.1138  167.9480 C.ar    1  UNL1        0.1791
     13 O         142.4232  140.8333  166.7298 O.3     1  UNL1       -0.4496
     14 C         142.1133  139.9261  165.5761 C.ar    1  UNL1        0.1633
     15 C         143.2172  139.9342  164.5606 C.ar    1  UNL1        0.0728
     16 C         143.1055  139.0915  163.3248 C.ar    1  UNL1        0.1316
     17 N         141.8899  138.2408  163.1044 N.ar    1  UNL1       -0.2279
     18 C         140.7860  138.2328  164.1198 C.ar    1  UNL1        0.1182
     19 C         140.8976  139.0754  165.3557 C.ar    1  UNL1        0.1084
     20 N         144.2095  139.0996  162.3092 N.pl3   1  UNL1       -0.3196
     21 H         144.9253  138.4253  162.3549 H       1  UNL1        0.1481
     22 C         144.2227  140.1350  161.2240 C.3     1  UNL1        0.0705
     23 C         143.8541  139.7552  159.8204 C.3     1  UNL1        0.0220
     24 C         143.8673  140.7907  158.7352 C.3     1  UNL1        0.0309
     25 C         144.2492  142.2060  159.0536 C.3     1  UNL1        0.1106
     26 O         144.2624  143.2414  157.9684 O.3     1  UNL1       -0.3845
     27 C         144.6178  142.5857  160.4571 C.3     1  UNL1        0.0309
     28 C         144.6045  141.5502  161.5423 C.3     1  UNL1        0.0220
     29 H         144.0011  142.8328  157.1284 H       1  UNL1        0.2103
@<TRIPOS>BOND
     1     1     2    1
     2     2     3   am
     3     3     4    2
     4     3     5    1
     5     5     6   ar
     6     6     7    1
     7     6     8   ar
     8     8     9   ar
     9     9    10   ar
    10    10    11    1
    11    10    12   ar
    12    12    13    1
    13    13    14    1
    14    14    15   ar
    15    15    16   ar
    16    16    20    1
    17    22    20    1
    18    22    23    1
    19    23    24    1
    20    24    25    1
    21    25    26    1
    22    25    27    1
    23    27    28    1
    24    16    17   ar
    25    17    18   ar
    26    18    19   ar
    27    19     2    1
    28    12     5   ar
    29    19    14   ar
    30    28    22    1
    31    20    21    1
    32    26    29    1
@<TRIPOS>MOLECULE
*****
 29 32 0 0 0
SMALL
GASTEIGER

@<TRIPOS>ATOM
      1 C         137.7845  139.1700  162.0045 C.3     1  UNL1        0.1205
      2 N         138.5110  140.4035  162.4527 N.am    1  UNL1       -0.2493
      3 C         138.7473  141.4402  161.3948 C.2     1  UNL1        0.2581
      4 O         138.2260  141.1065  160.0285 O.2     1  UNL1       -0.2694
      5 C         139.4361  142.7666  161.5225 C.ar    1  UNL1        0.1180
      6 C         139.4579  143.5010  160.2148 C.ar    1  UNL1        0.1476
      7 F         138.8354  142.8838  158.9976 F       1  UNL1       -0.2039
      8 C         140.1022  144.8525  160.1242 C.ar    1  UNL1        0.0323
      9 C         140.7247  145.4697  161.3413 C.ar    1  UNL1        0.0351
     10 C         140.7029  144.7354  162.6491 C.ar    1  UNL1        0.1747
     11 F         141.3254  145.3525  163.8664 F       1  UNL1       -0.2009
     12 C         140.0587  143.3838  162.7397 C.ar    1  UNL1        0.1791
     13 O         140.1461  142.8270  164.1298 O.3     1  UNL1       -0.4496
     14 C         139.6327  141.5156  164.6461 C.ar    1  UNL1        0.1633
     15 C         139.9304  141.3471  166.1065 C.ar    1  UNL1        0.0728
     16 C         139.5004  140.1001  166.8206 C.ar    1  UNL1        0.1316
     17 N         138.7727  139.0215  166.0742 N.ar    1  UNL1       -0.2279
     18 C         138.4750  139.1899  164.6138 C.ar    1  UNL1        0.1182
     19 C         138.9050  140.4370  163.8997 C.ar    1  UNL1        0.1084
     20 N         139.7981  139.9316  168.2811 N.pl3   1  UNL1       -0.3196
     21 H         139.4107  139.1754  168.7784 H       1  UNL1        0.1481
     22 C         140.6862  140.9152  168.9838 C.3     1  UNL1        0.0705
     23 C         142.1675  140.6847  169.0355 C.3     1  UNL1        0.0220
     24 C         143.0555  141.6683  169.7382 C.3     1  UNL1        0.0309
     25 C         142.4622  142.8825  170.3893 C.3     1  UNL1        0.1106
     26 O         143.3503  143.8662  171.0920 O.3     1  UNL1       -0.3845
     27 C         140.9810  143.1130  170.3377 C.3     1  UNL1        0.0309
     28 C         140.0929  142.1293  169.6349 C.3     1  UNL1        0.0220
     29 H         144.2719  143.5697  171.0325 H       1  UNL1        0.2103
@<TRIPOS>BOND
     1     1     2    1
     2     2     3   am
     3     3     4    2
     4     3     5    1
     5     5     6   ar
     6     6     7    1
     7     6     8   ar
     8     8     9   ar
     9     9    10   ar
    10    10    11    1
    11    10    12   ar
    12    12    13    1
    13    13    14    1
    14    14    15   ar
    15    15    16   ar
    16    16    20    1
    17    22    20    1
    18    22    23    1
    19    23    24    1
    20    24    25    1
    21    25    26    1
    22    25    27    1
    23    27    28    1
    24    16    17   ar
    25    17    18   ar
    26    18    19   ar
    27    19     2    1
    28    12     5   ar
    29    19    14   ar
    30    28    22    1
    31    20    21    1
    32    26    29    1
@<TRIPOS>MOLECULE
*****
 29 32 0 0 0
SMALL
GASTEIGER

@<TRIPOS>ATOM
      1 C         139.6858  146.0845  161.6195 C.3     1  UNL1        0.1205
      2 N         140.5852  144.8867  161.5397 N.am    1  UNL1       -0.2493
      3 C         141.3369  144.7219  160.2522 C.2     1  UNL1        0.2581
      4 O         141.0900  145.7766  159.2148 O.2     1  UNL1       -0.2694
      5 C         142.3030  143.6417  159.8651 C.ar    1  UNL1        0.1180
      6 C         142.8339  143.8526  158.4781 C.ar    1  UNL1        0.1476
      7 F         142.3810  145.0347  157.6735 F       1  UNL1       -0.2039
      8 C         143.8177  142.8815  157.8958 C.ar    1  UNL1        0.0323
      9 C         144.2706  141.6994  158.7004 C.ar    1  UNL1        0.0351
     10 C         143.7397  141.4884  160.0874 C.ar    1  UNL1        0.1747
     11 F         144.1926  140.3063  160.8922 F       1  UNL1       -0.2009
     12 C         142.7559  142.4595  160.6697 C.ar    1  UNL1        0.1791
     13 O         142.3546  142.0657  162.0603 O.3     1  UNL1       -0.4496
     14 C         141.4012  142.7566  162.9897 C.ar    1  UNL1        0.1633
     15 C         141.2828  142.0271  164.2950 C.ar    1  UNL1        0.0728
     16 C         140.3769  142.5531  165.3686 C.ar    1  UNL1        0.1316
     17 N         139.5895  143.8086  165.1369 N.ar    1  UNL1       -0.2279
     18 C         139.7079  144.5381  163.8316 C.ar    1  UNL1        0.1182
     19 C         140.6137  144.0121  162.7581 C.ar    1  UNL1        0.1084
     20 N         140.2585  141.8237  166.6740 N.pl3   1  UNL1       -0.3196
     21 H         139.6834  141.0275  166.7426 H       1  UNL1        0.1481
     22 C         141.0162  142.3072  167.8748 C.3     1  UNL1        0.0705
     23 C         140.3557  143.2280  168.8577 C.3     1  UNL1        0.0220
     24 C         141.1134  143.7116  170.0585 C.3     1  UNL1        0.0309
     25 C         142.5317  143.2744  170.2765 C.3     1  UNL1        0.1106
     26 O         143.2894  143.7580  171.4773 O.3     1  UNL1       -0.3845
     27 C         143.1922  142.3537  169.2936 C.3     1  UNL1        0.0309
     28 C         142.4344  141.8702  168.0928 C.3     1  UNL1        0.0220
     29 H         142.7210  144.3402  172.0054 H       1  UNL1        0.2103
@<TRIPOS>BOND
     1     1     2    1
     2     2     3   am
     3     3     4    2
     4     3     5    1
     5     5     6   ar
     6     6     7    1
     7     6     8   ar
     8     8     9   ar
     9     9    10   ar
    10    10    11    1
    11    10    12   ar
    12    12    13    1
    13    13    14    1
    14    14    15   ar
    15    15    16   ar
    16    16    20    1
    17    22    20    1
    18    22    23    1
    19    23    24    1
    20    24    25    1
    21    25    26    1
    22    25    27    1
    23    27    28    1
    24    16    17   ar
    25    17    18   ar
    26    18    19   ar
    27    19     2    1
    28    12     5   ar
    29    19    14   ar
    30    28    22    1
    31    20    21    1
    32    26    29    1
@<TRIPOS>MOLECULE
*****
 29 32 0 0 0
SMALL
GASTEIGER

@<TRIPOS>ATOM
      1 C         137.7450  138.8220  167.2007 C.3     1  UNL1        0.1205
      2 N         138.9996  139.6358  167.0847 N.am    1  UNL1       -0.2493
      3 C         139.6268  140.0533  168.3818 C.2     1  UNL1        0.2581
      4 O         138.9164  139.6018  169.6233 O.2     1  UNL1       -0.2694
      5 C         140.8705  140.8627  168.6014 C.ar    1  UNL1        0.1180
      6 C         141.1484  141.0547  170.0628 C.ar    1  UNL1        0.1476
      7 F         140.2248  140.4630  171.0859 F       1  UNL1       -0.2039
      8 C         142.3499  141.8385  170.5012 C.ar    1  UNL1        0.0323
      9 C         143.2735  142.4302  169.4781 C.ar    1  UNL1        0.0351
     10 C         142.9956  142.2382  168.0166 C.ar    1  UNL1        0.1747
     11 F         143.9192  142.8299  166.9934 F       1  UNL1       -0.2009
     12 C         141.7941  141.4545  167.5782 C.ar    1  UNL1        0.1791
     13 O         141.7021  141.3829  166.0828 O.3     1  UNL1       -0.4496
     14 C         140.6639  140.7021  165.2410 C.ar    1  UNL1        0.1633
     15 C         140.9459  140.8736  163.7778 C.ar    1  UNL1        0.0728
     16 C         140.0251  140.2676  162.7605 C.ar    1  UNL1        0.1316
     17 N         138.8224  139.4901  163.2065 N.ar    1  UNL1       -0.2279
     18 C         138.5404  139.3185  164.6697 C.ar    1  UNL1        0.1182
     19 C         139.4612  139.9245  165.6869 C.ar    1  UNL1        0.1084
     20 N         140.3071  140.4392  161.2973 N.pl3   1  UNL1       -0.3196
     21 H         140.2203  139.6723  160.6860 H       1  UNL1        0.1481
     22 C         140.7213  141.7792  160.7653 C.3     1  UNL1        0.0705
     23 C         139.6922  142.8466  160.5381 C.3     1  UNL1        0.0220
     24 C         140.1064  144.1866  160.0062 C.3     1  UNL1        0.0309
     25 C         141.5496  144.4591  159.7015 C.3     1  UNL1        0.1106
     26 O         141.9638  145.7991  159.1696 O.3     1  UNL1       -0.3845
     27 C         142.5787  143.3917  159.9288 C.3     1  UNL1        0.0309
     28 C         142.1645  142.0517  160.4607 C.3     1  UNL1        0.0220
     29 H         141.1829  146.3677  159.0822 H       1  UNL1        0.2103
@<TRIPOS>BOND
     1     1     2    1
     2     2     3   am
     3     3     4    2
     4     3     5    1
     5     5     6   ar
     6     6     7    1
     7     6     8   ar
     8     8     9   ar
     9     9    10   ar
    10    10    11    1
    11    10    12   ar
    12    12    13    1
    13    13    14    1
    14    14    15   ar
    15    15    16   ar
    16    16    20    1
    17    22    20    1
    18    22    23    1
    19    23    24    1
    20    24    25    1
    21    25    26    1
    22    25    27    1
    23    27    28    1
    24    16    17   ar
    25    17    18   ar
    26    18    19   ar
    27    19     2    1
    28    12     5   ar
    29    19    14   ar
    30    28    22    1
    31    20    21    1
    32    26    29    1
@<TRIPOS>MOLECULE
*****
 29 32 0 0 0
SMALL
GASTEIGER

@<TRIPOS>ATOM
      1 C         138.6510  144.9090  162.9630 C.3     1  UNL1        0.1205
      2 N         139.7589  144.0705  162.3978 N.am    1  UNL1       -0.2493
      3 C         140.3082  144.5225  161.0772 C.2     1  UNL1        0.2581
      4 O         139.6770  145.7530  160.4964 O.2     1  UNL1       -0.2694
      5 C         141.4054  143.9065  160.2605 C.ar    1  UNL1        0.1180
      6 C         141.6458  144.6767  158.9961 C.ar    1  UNL1        0.1476
      7 F         140.8271  145.8966  158.6938 F       1  UNL1       -0.2039
      8 C         142.7051  144.2270  158.0338 C.ar    1  UNL1        0.0323
      9 C         143.5238  143.0071  158.3361 C.ar    1  UNL1        0.0351
     10 C         143.2833  142.2368  159.6006 C.ar    1  UNL1        0.1747
     11 F         144.1021  141.0168  159.9029 F       1  UNL1       -0.2009
     12 C         142.2242  142.6865  160.5628 C.ar    1  UNL1        0.1791
     13 O         142.1479  141.7812  161.7564 O.3     1  UNL1       -0.4496
     14 C         141.2342  141.8722  162.9425 C.ar    1  UNL1        0.1633
     15 C         141.4880  140.7600  163.9164 C.ar    1  UNL1        0.0728
     16 C         140.6785  140.6667  165.1758 C.ar    1  UNL1        0.1316
     17 N         139.6153  141.6855  165.4612 N.ar    1  UNL1       -0.2279
     18 C         139.3615  142.7977  164.4873 C.ar    1  UNL1        0.1182
     19 C         140.1710  142.8911  163.2280 C.ar    1  UNL1        0.1084
     20 N         140.9323  139.5544  166.1497 N.pl3   1  UNL1       -0.3196
     21 H         141.1405  138.6501  165.8209 H       1  UNL1        0.1481
     22 C         140.8689  139.8201  167.6247 C.3     1  UNL1        0.0705
     23 C         142.1282  139.8300  168.4398 C.3     1  UNL1        0.0220
     24 C         142.0648  140.0956  169.9147 C.3     1  UNL1        0.0309
     25 C         140.7421  140.3514  170.5745 C.3     1  UNL1        0.1106
     26 O         140.6787  140.6170  172.0495 O.3     1  UNL1       -0.3845
     27 C         139.4830  140.3415  169.7594 C.3     1  UNL1        0.0309
     28 C         139.5464  140.0758  168.2845 C.3     1  UNL1        0.0220
     29 H         141.5738  140.5878  172.4220 H       1  UNL1        0.2103
@<TRIPOS>BOND
     1     1     2    1
     2     2     3   am
     3     3     4    2
     4     3     5    1
     5     5     6   ar
     6     6     7    1
     7     6     8   ar
     8     8     9   ar
     9     9    10   ar
    10    10    11    1
    11    10    12   ar
    12    12    13    1
    13    13    14    1
    14    14    15   ar
    15    15    16   ar
    16    16    20    1
    17    22    20    1
    18    22    23    1
    19    23    24    1
    20    24    25    1
    21    25    26    1
    22    25    27    1
    23    27    28    1
    24    16    17   ar
    25    17    18   ar
    26    18    19   ar
    27    19     2    1
    28    12     5   ar
    29    19    14   ar
    30    28    22    1
    31    20    21    1
    32    26    29    1
@<TRIPOS>MOLECULE
*****
 29 32 0 0 0
SMALL
GASTEIGER

@<TRIPOS>ATOM
      1 C         137.7668  138.6917  166.7933 C.3     1  UNL1        0.1205
      2 N         139.0202  139.5132  166.7298 N.am    1  UNL1       -0.2493
      3 C         139.5474  139.9989  168.0475 C.2     1  UNL1        0.2581
      4 O         138.7516  139.5989  169.2543 O.2     1  UNL1       -0.2694
      5 C         140.7654  140.8317  168.3177 C.ar    1  UNL1        0.1180
      6 C         140.9340  141.0961  169.7846 C.ar    1  UNL1        0.1476
      7 F         139.9426  140.5433  170.7651 F       1  UNL1       -0.2039
      8 C         142.0941  141.9132  170.2709 C.ar    1  UNL1        0.0323
      9 C         143.0855  142.4660  169.2904 C.ar    1  UNL1        0.0351
     10 C         142.9169  142.2016  167.8236 C.ar    1  UNL1        0.1747
     11 F         143.9084  142.7544  166.8429 F       1  UNL1       -0.2009
     12 C         141.7569  141.3845  167.3372 C.ar    1  UNL1        0.1791
     13 O         141.7752  141.2410  165.8442 O.3     1  UNL1       -0.4496
     14 C         140.8067  140.5092  164.9629 C.ar    1  UNL1        0.1633
     15 C         141.1938  140.6142  163.5176 C.ar    1  UNL1        0.0728
     16 C         140.3547  139.9502  162.4664 C.ar    1  UNL1        0.1316
     17 N         139.1286  139.1813  162.8605 N.ar    1  UNL1       -0.2279
     18 C         138.7416  139.0763  164.3059 C.ar    1  UNL1        0.1182
     19 C         139.5806  139.7403  165.3571 C.ar    1  UNL1        0.1084
     20 N         140.7418  140.0552  161.0209 N.pl3   1  UNL1       -0.3196
     21 H         141.5973  139.6787  160.7118 H       1  UNL1        0.1481
     22 C         139.8253  140.7339  160.0465 C.3     1  UNL1        0.0705
     23 C         138.8705  139.9207  159.2236 C.3     1  UNL1        0.0220
     24 C         137.9540  140.5994  158.2492 C.3     1  UNL1        0.0309
     25 C         137.9924  142.0913  158.0977 C.3     1  UNL1        0.1106
     26 O         137.0759  142.7700  157.1233 O.3     1  UNL1       -0.3845
     27 C         138.9472  142.9044  158.9206 C.3     1  UNL1        0.0309
     28 C         139.8636  142.2257  159.8950 C.3     1  UNL1        0.0220
     29 H         136.5288  142.1050  156.6769 H       1  UNL1        0.2103
@<TRIPOS>BOND
     1     1     2    1
     2     2     3   am
     3     3     4    2
     4     3     5    1
     5     5     6   ar
     6     6     7    1
     7     6     8   ar
     8     8     9   ar
     9     9    10   ar
    10    10    11    1
    11    10    12   ar
    12    12    13    1
    13    13    14    1
    14    14    15   ar
    15    15    16   ar
    16    16    20    1
    17    22    20    1
    18    22    23    1
    19    23    24    1
    20    24    25    1
    21    25    26    1
    22    25    27    1
    23    27    28    1
    24    16    17   ar
    25    17    18   ar
    26    18    19   ar
    27    19     2    1
    28    12     5   ar
    29    19    14   ar
    30    28    22    1
    31    20    21    1
    32    26    29    1
@<TRIPOS>MOLECULE
*****
 29 32 0 0 0
SMALL
GASTEIGER

@<TRIPOS>ATOM
      1 C         137.4118  141.2171  163.2041 C.3     1  UNL1        0.1205
      2 N         138.7301  141.6028  163.8071 N.am    1  UNL1       -0.2493
      3 C         139.0651  140.9464  165.1136 C.2     1  UNL1        0.2581
      4 O         138.0376  139.9911  165.6443 O.2     1  UNL1       -0.2694
      5 C         140.2917  141.1190  165.9594 C.ar    1  UNL1        0.1180
      6 C         140.2282  140.2724  167.1961 C.ar    1  UNL1        0.1476
      7 F         139.0337  139.4008  167.4477 F       1  UNL1       -0.2039
      8 C         141.3593  140.2974  168.1810 C.ar    1  UNL1        0.0323
      9 C         142.5538  141.1690  167.9294 C.ar    1  UNL1        0.0351
     10 C         142.6173  142.0156  166.6928 C.ar    1  UNL1        0.1747
     11 F         143.8119  142.8873  166.4410 F       1  UNL1       -0.2009
     12 C         141.4863  141.9906  165.7078 C.ar    1  UNL1        0.1791
     13 O         141.7492  142.9049  164.5481 O.3     1  UNL1       -0.4496
     14 C         140.8825  143.1734  163.3536 C.ar    1  UNL1        0.1633
     15 C         141.5223  144.1608  162.4231 C.ar    1  UNL1        0.0728
     16 C         140.8184  144.5686  161.1629 C.ar    1  UNL1        0.1316
     17 N         139.4748  143.9891  160.8331 N.ar    1  UNL1       -0.2279
     18 C         138.8350  143.0018  161.7636 C.ar    1  UNL1        0.1182
     19 C         139.5389  142.5939  163.0238 C.ar    1  UNL1        0.1084
     20 N         141.4582  145.5560  160.2324 N.pl3   1  UNL1       -0.3196
     21 H         141.9203  146.3461  160.5950 H       1  UNL1        0.1481
     22 C         141.3940  145.3395  158.7495 C.3     1  UNL1        0.0705
     23 C         140.3310  146.0188  157.9377 C.3     1  UNL1        0.0220
     24 C         140.2668  145.8023  156.4548 C.3     1  UNL1        0.0309
     25 C         141.2655  144.9065  155.7837 C.3     1  UNL1        0.1106
     26 O         141.2012  144.6900  154.3008 O.3     1  UNL1       -0.3845
     27 C         142.3283  144.2274  156.5954 C.3     1  UNL1        0.0309
     28 C         142.3926  144.4438  158.0783 C.3     1  UNL1        0.0220
     29 H         140.4617  145.1977  153.9316 H       1  UNL1        0.2103
@<TRIPOS>BOND
     1     1     2    1
     2     2     3   am
     3     3     4    2
     4     3     5    1
     5     5     6   ar
     6     6     7    1
     7     6     8   ar
     8     8     9   ar
     9     9    10   ar
    10    10    11    1
    11    10    12   ar
    12    12    13    1
    13    13    14    1
    14    14    15   ar
    15    15    16   ar
    16    16    20    1
    17    22    20    1
    18    22    23    1
    19    23    24    1
    20    24    25    1
    21    25    26    1
    22    25    27    1
    23    27    28    1
    24    16    17   ar
    25    17    18   ar
    26    18    19   ar
    27    19     2    1
    28    12     5   ar
    29    19    14   ar
    30    28    22    1
    31    20    21    1
    32    26    29    1
@<TRIPOS>MOLECULE
*****
 29 32 0 0 0
SMALL
GASTEIGER

@<TRIPOS>ATOM
      1 C         138.9604  144.7748  164.5693 C.3     1  UNL1        0.1205
      2 N         140.1000  143.9699  164.0185 N.am    1  UNL1       -0.2493
      3 C         140.6786  142.9422  164.9453 C.2     1  UNL1        0.2581
      4 O         140.0412  142.8552  166.3003 O.2     1  UNL1       -0.2694
      5 C         141.8105  141.9899  164.6962 C.ar    1  UNL1        0.1180
      6 C         142.0728  141.1252  165.8935 C.ar    1  UNL1        0.1476
      7 F         141.2400  141.2849  167.1308 F       1  UNL1       -0.2039
      8 C         143.1678  140.1008  165.8535 C.ar    1  UNL1        0.0323
      9 C         144.0005  139.9411  164.6162 C.ar    1  UNL1        0.0351
     10 C         143.7383  140.8057  163.4189 C.ar    1  UNL1        0.1747
     11 F         144.5710  140.6460  162.1815 F       1  UNL1       -0.2009
     12 C         142.6433  141.8301  163.4589 C.ar    1  UNL1        0.1791
     13 O         142.5498  142.5833  162.1650 O.3     1  UNL1       -0.4496
     14 C         141.6006  143.6821  161.7889 C.ar    1  UNL1        0.1633
     15 C         141.8472  144.1645  160.3902 C.ar    1  UNL1        0.0728
     16 C         141.0036  145.2640  159.8164 C.ar    1  UNL1        0.1316
     17 N         139.9133  145.8811  160.6413 N.ar    1  UNL1       -0.2279
     18 C         139.6666  145.3988  162.0400 C.ar    1  UNL1        0.1182
     19 C         140.5103  144.2992  162.6138 C.ar    1  UNL1        0.1084
     20 N         141.2502  145.7465  158.4176 N.pl3   1  UNL1       -0.3196
     21 H         142.1008  146.1877  158.1919 H       1  UNL1        0.1481
     22 C         140.2007  145.5567  157.3628 C.3     1  UNL1        0.0705
     23 C         139.6819  146.7392  156.5996 C.3     1  UNL1        0.0220
     24 C         138.6324  146.5494  155.5449 C.3     1  UNL1        0.0309
     25 C         138.1017  145.1770  155.2533 C.3     1  UNL1        0.1106
     26 O         137.0522  144.9872  154.1985 O.3     1  UNL1       -0.3845
     27 C         138.6205  143.9945  156.0165 C.3     1  UNL1        0.0309
     28 C         139.6700  144.1843  157.0712 C.3     1  UNL1        0.0220
     29 H         136.8302  145.8456  153.8051 H       1  UNL1        0.2103
@<TRIPOS>BOND
     1     1     2    1
     2     2     3   am
     3     3     4    2
     4     3     5    1
     5     5     6   ar
     6     6     7    1
     7     6     8   ar
     8     8     9   ar
     9     9    10   ar
    10    10    11    1
    11    10    12   ar
    12    12    13    1
    13    13    14    1
    14    14    15   ar
    15    15    16   ar
    16    16    20    1
    17    22    20    1
    18    22    23    1
    19    23    24    1
    20    24    25    1
    21    25    26    1
    22    25    27    1
    23    27    28    1
    24    16    17   ar
    25    17    18   ar
    26    18    19   ar
    27    19     2    1
    28    12     5   ar
    29    19    14   ar
    30    28    22    1
    31    20    21    1
    32    26    29    1
