@<TRIPOS>MOLECULE
*****
 39 43 0 0 0
SMALL
GASTEIGER

@<TRIPOS>ATOM
      1 C         143.8055  141.9873  159.2787 C.3     1  UNL1        0.0666
      2 S         143.5657  140.8141  160.1819 S.3     1  UNL1       -0.0756
      3 C         143.9521  140.6870  164.0420 C.ar    1  UNL1        0.1680
      4 N         145.2704  141.2777  163.6379 N.ar    1  UNL1       -0.1282
      5 N         145.2861  141.3971  162.1428 N.ar    1  UNL1       -0.1221
      6 C         143.9775  140.8803  161.6227 C.ar    1  UNL1        0.1932
      7 N         143.1530  140.4414  162.7964 N.ar    1  UNL1       -0.2884
      8 C         141.7720  139.8592  162.7354 C.3     1  UNL1        0.1340
      9 C         143.1558  142.9328  165.8646 C.3     1  UNL1        0.0522
     10 C         143.1123  141.5164  166.3564 C.ar    1  UNL1        0.0624
     11 N         142.6706  141.2230  167.7596 N.ar    1  UNL1       -0.2450
     12 C         142.6271  139.8066  168.2513 C.ar    1  UNL1        0.1338
     13 C         143.0253  138.6835  167.3400 C.ar    1  UNL1        0.0238
     14 C         143.4669  138.9771  165.9369 C.ar    1  UNL1        0.0059
     15 C         143.5105  140.3935  165.4451 C.ar    1  UNL1        0.0495
     16 C         142.1855  139.5130  169.6545 C.2     1  UNL1        0.2605
     17 N         143.2060  139.2748  170.7277 N.am    1  UNL1       -0.3241
     18 O         140.7233  139.4577  169.9844 O.2     1  UNL1       -0.2687
     19 H         144.1657  139.3111  170.5111 H       1  UNL1        0.1453
     20 H         142.9161  139.0821  171.6486 H       1  UNL1        0.1453
     21 C         142.8269  143.1238  159.2494 C.3     1  UNL1        0.0294
     22 C         141.4382  142.9317  159.7828 C.3     1  UNL1        0.0730
     23 N         140.9920  143.6840  161.0014 N.3     1  UNL1       -0.2726
     24 C         141.0740  145.1686  161.2001 C.3     1  UNL1        0.0721
     25 C         140.5182  145.4859  162.5567 C.3     1  UNL1        0.0190
     26 C         140.0926  144.1976  163.1963 C.3     1  UNL1        0.0201
     27 C         139.6044  144.8112  164.4750 C.3     1  UNL1        0.0061
     28 C         139.5224  143.3267  164.2763 C.3     1  UNL1        0.0237
     29 C         140.3855  143.0840  162.2351 C.3     1  UNL1        0.0724
     30 C         139.1458  141.9668  164.7851 C.ar    1  UNL1       -0.0225
     31 C         138.2821  141.0670  163.9518 C.ar    1  UNL1       -0.0043
     32 C         137.9056  139.7071  164.4606 C.ar    1  UNL1        0.0035
     33 C         138.3927  139.2470  165.8026 C.ar    1  UNL1        0.0714
     34 C         139.2564  140.1469  166.6358 C.ar    1  UNL1        0.0035
     35 C         139.6330  141.5067  166.1271 C.ar    1  UNL1       -0.0043
     36 C         138.0162  137.8871  166.3113 C.3     1  UNL1        0.4186
     37 F         137.6396  136.5271  166.8201 F       1  UNL1       -0.1659
     38 F         138.7709  137.2548  165.1797 F       1  UNL1       -0.1659
     39 F         137.2615  138.5194  167.4429 F       1  UNL1       -0.1659
@<TRIPOS>BOND
     1     9    10    1
     2    10    11   ar
     3    11    12   ar
     4    12    16    1
     5    16    17   am
     6    16    18    2
     7    12    13   ar
     8    13    14   ar
     9    14    15   ar
    10    15     3    1
    11     3     4   ar
    12     4     5   ar
    13     5     6   ar
    14     6     2    1
    15     2     1    1
    16     1    21    1
    17    21    22    1
    18    22    23    1
    19    23    24    1
    20    24    25    1
    21    26    25    1
    22    26    27    1
    23    27    28    1
    24    28    30    1
    25    30    31   ar
    26    31    32   ar
    27    32    33   ar
    28    33    36    1
    29    36    37    1
    30    36    38    1
    31    36    39    1
    32    33    34   ar
    33    34    35   ar
    34    26    29    1
    35     6     7   ar
    36     7     8    1
    37    15    10   ar
    38     7     3   ar
    39    29    23    1
    40    28    26    1
    41    35    30   ar
    42    17    19    1
    43    17    20    1
@<TRIPOS>MOLECULE
*****
 39 43 0 0 0
SMALL
GASTEIGER

@<TRIPOS>ATOM
      1 C         144.1884  141.8741  160.0957 C.3     1  UNL1        0.0666
      2 S         144.3328  140.6533  160.9552 S.3     1  UNL1       -0.0756
      3 C         142.7899  140.4174  164.5090 C.ar    1  UNL1        0.1680
      4 N         141.5972  140.1068  163.6540 N.ar    1  UNL1       -0.1282
      5 N         142.0300  140.1574  162.2186 N.ar    1  UNL1       -0.1221
      6 C         143.4902  140.4992  162.1866 C.ar    1  UNL1        0.1932
      7 N         143.9599  140.6599  163.6020 N.ar    1  UNL1       -0.2884
      8 C         145.3546  141.0029  164.0347 C.3     1  UNL1        0.1340
      9 C         143.0407  137.8893  166.1046 C.3     1  UNL1        0.0522
     10 C         142.9347  139.2112  166.8055 C.ar    1  UNL1        0.0624
     11 N         142.9541  139.2690  168.3043 N.ar    1  UNL1       -0.2450
     12 C         142.8480  140.5909  169.0053 C.ar    1  UNL1        0.1338
     13 C         142.7226  141.8550  168.2075 C.ar    1  UNL1        0.0238
     14 C         142.7033  141.7971  166.7087 C.ar    1  UNL1        0.0059
     15 C         142.8093  140.4753  166.0078 C.ar    1  UNL1        0.0495
     16 C         142.8674  140.6488  170.5040 C.2     1  UNL1        0.2605
     17 N         143.7529  139.7187  171.2791 N.am    1  UNL1       -0.3241
     18 O         142.0012  141.6367  171.2277 O.2     1  UNL1       -0.2687
     19 H         144.3214  139.0702  170.8042 H       1  UNL1        0.1453
     20 H         143.7656  139.7567  172.2628 H       1  UNL1        0.1453
     21 C         143.5055  143.0954  160.6362 C.3     1  UNL1        0.0294
     22 C         142.0745  143.3730  160.2826 C.3     1  UNL1        0.0730
     23 N         141.1711  144.0376  161.2787 N.3     1  UNL1       -0.2726
     24 C         140.8798  145.5066  161.3621 C.3     1  UNL1        0.0721
     25 C         139.9291  145.7266  162.5013 C.3     1  UNL1        0.0190
     26 C         139.6328  144.3936  163.1219 C.3     1  UNL1        0.0201
     27 C         138.7034  144.9151  164.1775 C.3     1  UNL1        0.0061
     28 C         138.9948  143.4460  164.0941 C.3     1  UNL1        0.0237
     29 C         140.4005  143.3496  162.3663 C.3     1  UNL1        0.0724
     30 C         138.7946  142.0508  164.6072 C.ar    1  UNL1       -0.0225
     31 C         139.3346  141.6614  165.9514 C.ar    1  UNL1       -0.0043
     32 C         139.1344  140.2662  166.4645 C.ar    1  UNL1        0.0035
     33 C         138.3943  139.2604  165.6334 C.ar    1  UNL1        0.0714
     34 C         137.8543  139.6499  164.2893 C.ar    1  UNL1        0.0035
     35 C         138.0545  141.0451  163.7761 C.ar    1  UNL1       -0.0043
     36 C         138.1942  137.8652  166.1465 C.3     1  UNL1        0.4186
     37 F         137.9940  136.4699  166.6597 F       1  UNL1       -0.1659
     38 F         139.1729  137.3518  165.1324 F       1  UNL1       -0.1659
     39 F         137.2154  138.3786  167.1606 F       1  UNL1       -0.1659
@<TRIPOS>BOND
     1     9    10    1
     2    10    11   ar
     3    11    12   ar
     4    12    16    1
     5    16    17   am
     6    16    18    2
     7    12    13   ar
     8    13    14   ar
     9    14    15   ar
    10    15     3    1
    11     3     4   ar
    12     4     5   ar
    13     5     6   ar
    14     6     2    1
    15     2     1    1
    16     1    21    1
    17    21    22    1
    18    22    23    1
    19    23    24    1
    20    24    25    1
    21    26    25    1
    22    26    27    1
    23    27    28    1
    24    28    30    1
    25    30    31   ar
    26    31    32   ar
    27    32    33   ar
    28    33    36    1
    29    36    37    1
    30    36    38    1
    31    36    39    1
    32    33    34   ar
    33    34    35   ar
    34    26    29    1
    35     6     7   ar
    36     7     8    1
    37    15    10   ar
    38     7     3   ar
    39    29    23    1
    40    28    26    1
    41    35    30   ar
    42    17    19    1
    43    17    20    1
@<TRIPOS>MOLECULE
*****
 39 43 0 0 0
SMALL
GASTEIGER

@<TRIPOS>ATOM
      1 C         144.5147  142.4359  161.4163 C.3     1  UNL1        0.0666
      2 S         143.7730  143.4540  162.2308 S.3     1  UNL1       -0.0756
      3 C         141.5470  142.3264  165.2039 C.ar    1  UNL1        0.1680
      4 N         140.5460  142.3555  164.0870 N.ar    1  UNL1       -0.1282
      5 N         141.2581  142.7815  162.8374 N.ar    1  UNL1       -0.1221
      6 C         142.6991  143.0156  163.1819 C.ar    1  UNL1        0.1932
      7 N         142.8777  142.7343  164.6445 N.ar    1  UNL1       -0.2884
      8 C         144.1615  142.8421  165.4127 C.3     1  UNL1        0.1340
      9 C         142.2293  139.5801  166.2000 C.3     1  UNL1        0.0522
     10 C         141.6077  140.5815  167.1278 C.ar    1  UNL1        0.0624
     11 N         141.3272  140.2096  168.5536 N.ar    1  UNL1       -0.2450
     12 C         140.7055  141.2109  169.4814 C.ar    1  UNL1        0.1338
     13 C         140.3642  142.5841  168.9834 C.ar    1  UNL1        0.0238
     14 C         140.6448  142.9559  167.5576 C.ar    1  UNL1        0.0059
     15 C         141.2664  141.9546  166.6298 C.ar    1  UNL1        0.0495
     16 C         140.4250  140.8391  170.9073 C.2     1  UNL1        0.2605
     17 N         139.8646  139.4865  171.2334 N.am    1  UNL1       -0.3241
     18 O         140.7048  141.8200  172.0071 O.2     1  UNL1       -0.2687
     19 H         139.6809  138.8427  170.5115 H       1  UNL1        0.1453
     20 H         139.6805  139.2425  172.1692 H       1  UNL1        0.1453
     21 C         144.4686  140.9875  161.8035 C.3     1  UNL1        0.0294
     22 C         144.4078  139.9290  160.7425 C.3     1  UNL1        0.0730
     23 N         143.0811  139.4841  160.2020 N.3     1  UNL1       -0.2726
     24 C         142.7589  139.2234  158.7604 C.3     1  UNL1        0.0721
     25 C         141.3224  138.8000  158.6758 C.3     1  UNL1        0.0190
     26 C         140.7568  138.7990  160.0651 C.3     1  UNL1        0.0201
     27 C         139.3783  138.3564  159.6729 C.3     1  UNL1        0.0061
     28 C         139.7005  138.6171  161.1145 C.3     1  UNL1        0.0237
     29 C         141.8438  139.2218  161.0084 C.3     1  UNL1        0.0724
     30 C         139.2767  138.6626  162.5527 C.ar    1  UNL1       -0.0225
     31 C         139.6629  137.5519  163.4839 C.ar    1  UNL1       -0.0043
     32 C         139.2392  137.5974  164.9220 C.ar    1  UNL1        0.0035
     33 C         138.4292  138.7536  165.4290 C.ar    1  UNL1        0.0714
     34 C         138.0429  139.8643  164.4978 C.ar    1  UNL1        0.0035
     35 C         138.4667  139.8188  163.0596 C.ar    1  UNL1       -0.0043
     36 C         138.0054  138.7991  166.8671 C.3     1  UNL1        0.4186
     37 F         137.5815  138.8446  168.3054 F       1  UNL1       -0.1659
     38 F         138.4853  140.2170  166.9637 F       1  UNL1       -0.1659
     39 F         137.5255  137.3813  166.7706 F       1  UNL1       -0.1659
@<TRIPOS>BOND
     1     9    10    1
     2    10    11   ar
     3    11    12   ar
     4    12    16    1
     5    16    17   am
     6    16    18    2
     7    12    13   ar
     8    13    14   ar
     9    14    15   ar
    10    15     3    1
    11     3     4   ar
    12     4     5   ar
    13     5     6   ar
    14     6     2    1
    15     2     1    1
    16     1    21    1
    17    21    22    1
    18    22    23    1
    19    23    24    1
    20    24    25    1
    21    26    25    1
    22    26    27    1
    23    27    28    1
    24    28    30    1
    25    30    31   ar
    26    31    32   ar
    27    32    33   ar
    28    33    36    1
    29    36    37    1
    30    36    38    1
    31    36    39    1
    32    33    34   ar
    33    34    35   ar
    34    26    29    1
    35     6     7   ar
    36     7     8    1
    37    15    10   ar
    38     7     3   ar
    39    29    23    1
    40    28    26    1
    41    35    30   ar
    42    17    19    1
    43    17    20    1
@<TRIPOS>MOLECULE
*****
 39 43 0 0 0
SMALL
GASTEIGER

@<TRIPOS>ATOM
      1 C         143.6662  142.5284  159.8228 C.3     1  UNL1        0.0666
      2 S         143.2555  141.0885  159.7339 S.3     1  UNL1       -0.0756
      3 C         140.3633  139.9290  162.0483 C.ar    1  UNL1        0.1680
      4 N         139.6848  139.9215  160.7105 N.ar    1  UNL1       -0.1282
      5 N         140.6857  140.3549  159.6807 N.ar    1  UNL1       -0.1221
      6 C         141.9827  140.6303  160.3820 C.ar    1  UNL1        0.1932
      7 N         141.7835  140.3672  161.8453 N.ar    1  UNL1       -0.2884
      8 C         142.8221  140.5160  162.9173 C.3     1  UNL1        0.1340
      9 C         140.8771  137.2327  163.2589 C.3     1  UNL1        0.0522
     10 C         139.9893  138.2147  163.9642 C.ar    1  UNL1        0.0624
     11 N         139.3584  137.8483  165.2749 N.ar    1  UNL1       -0.2450
     12 C         138.4705  138.8303  165.9802 C.ar    1  UNL1        0.1338
     13 C         138.2135  140.1785  165.3750 C.ar    1  UNL1        0.0238
     14 C         138.8445  140.5448  164.0643 C.ar    1  UNL1        0.0059
     15 C         139.7323  139.5628  163.3590 C.ar    1  UNL1        0.0495
     16 C         137.8396  138.4641  167.2909 C.2     1  UNL1        0.2605
     17 N         136.9409  137.2666  167.3820 N.am    1  UNL1       -0.3241
     18 O         138.1073  139.2953  168.5104 O.2     1  UNL1       -0.2687
     19 H         136.7651  136.7209  166.5816 H       1  UNL1        0.1453
     20 H         136.5268  137.0262  168.2422 H       1  UNL1        0.1453
     21 C         142.7075  143.5501  160.3587 C.3     1  UNL1        0.0294
     22 C         142.7991  143.9859  161.7911 C.3     1  UNL1        0.0730
     23 N         141.5482  144.2305  162.5821 N.3     1  UNL1       -0.2726
     24 C         140.3588  145.0236  162.1280 C.3     1  UNL1        0.0721
     25 C         139.3428  145.0081  163.2313 C.3     1  UNL1        0.0190
     26 C         139.9042  144.2053  164.3673 C.3     1  UNL1        0.0201
     27 C         138.7189  144.3646  165.2727 C.3     1  UNL1        0.0061
     28 C         139.9083  143.5714  165.7267 C.3     1  UNL1        0.0237
     29 C         141.2673  143.7247  163.9660 C.3     1  UNL1        0.0724
     30 C         140.5974  142.7475  166.7738 C.ar    1  UNL1       -0.0225
     31 C         140.3560  143.0275  168.2275 C.ar    1  UNL1       -0.0043
     32 C         141.0451  142.2036  169.2745 C.ar    1  UNL1        0.0035
     33 C         141.9756  141.0997  168.8678 C.ar    1  UNL1        0.0714
     34 C         142.2170  140.8196  167.4141 C.ar    1  UNL1        0.0035
     35 C         141.5279  141.6436  166.3670 C.ar    1  UNL1       -0.0043
     36 C         142.6647  140.2758  169.9148 C.3     1  UNL1        0.4186
     37 F         143.3538  139.4518  170.9619 F       1  UNL1       -0.1659
     38 F         143.7948  141.2616  169.9469 F       1  UNL1       -0.1659
     39 F         141.5347  139.2899  169.8828 F       1  UNL1       -0.1659
@<TRIPOS>BOND
     1     9    10    1
     2    10    11   ar
     3    11    12   ar
     4    12    16    1
     5    16    17   am
     6    16    18    2
     7    12    13   ar
     8    13    14   ar
     9    14    15   ar
    10    15     3    1
    11     3     4   ar
    12     4     5   ar
    13     5     6   ar
    14     6     2    1
    15     2     1    1
    16     1    21    1
    17    21    22    1
    18    22    23    1
    19    23    24    1
    20    24    25    1
    21    26    25    1
    22    26    27    1
    23    27    28    1
    24    28    30    1
    25    30    31   ar
    26    31    32   ar
    27    32    33   ar
    28    33    36    1
    29    36    37    1
    30    36    38    1
    31    36    39    1
    32    33    34   ar
    33    34    35   ar
    34    26    29    1
    35     6     7   ar
    36     7     8    1
    37    15    10   ar
    38     7     3   ar
    39    29    23    1
    40    28    26    1
    41    35    30   ar
    42    17    19    1
    43    17    20    1
@<TRIPOS>MOLECULE
*****
 39 43 0 0 0
SMALL
GASTEIGER

@<TRIPOS>ATOM
      1 C         142.5669  141.2309  158.5050 C.3     1  UNL1        0.0666
      2 S         142.0651  139.8236  158.6379 S.3     1  UNL1       -0.0756
      3 C         139.5410  139.1402  161.5063 C.ar    1  UNL1        0.1680
      4 N         138.6589  138.9911  160.3023 N.ar    1  UNL1       -0.1282
      5 N         139.4971  139.2289  159.0812 N.ar    1  UNL1       -0.1221
      6 C         140.8972  139.5250  159.5306 C.ar    1  UNL1        0.1932
      7 N         140.9244  139.4703  161.0294 N.ar    1  UNL1       -0.2884
      8 C         142.1242  139.7044  161.8986 C.3     1  UNL1        0.1340
      9 C         138.0151  141.3391  162.8614 C.3     1  UNL1        0.0522
     10 C         138.3516  140.0858  163.6137 C.ar    1  UNL1        0.0624
     11 N         137.9252  139.9321  165.0436 N.ar    1  UNL1       -0.2450
     12 C         138.2617  138.6788  165.7959 C.ar    1  UNL1        0.1338
     13 C         139.0247  137.5792  165.1184 C.ar    1  UNL1        0.0238
     14 C         139.4511  137.7331  163.6885 C.ar    1  UNL1        0.0059
     15 C         139.1146  138.9864  162.9362 C.ar    1  UNL1        0.0495
     16 C         137.8353  138.5249  167.2258 C.2     1  UNL1        0.2605
     17 N         136.8102  137.4944  167.5960 N.am    1  UNL1       -0.3241
     18 O         138.4340  139.4016  168.2854 O.2     1  UNL1       -0.2687
     19 H         136.4172  136.9189  166.9005 H       1  UNL1        0.1453
     20 H         136.5304  137.3934  168.5344 H       1  UNL1        0.1453
     21 C         141.6072  142.3805  158.5901 C.3     1  UNL1        0.0294
     22 C         142.0646  143.7006  159.1362 C.3     1  UNL1        0.0730
     23 N         141.5055  144.2109  160.4312 N.3     1  UNL1       -0.2726
     24 C         140.6947  145.4601  160.6101 C.3     1  UNL1        0.0721
     25 C         140.3472  145.5828  162.0642 C.3     1  UNL1        0.0190
     26 C         140.9432  144.4094  162.7838 C.3     1  UNL1        0.0201
     27 C         140.4495  144.7942  164.1470 C.3     1  UNL1        0.0061
     28 C         141.2603  143.5450  163.9680 C.3     1  UNL1        0.0237
     29 C         141.6591  143.5615  161.7746 C.3     1  UNL1        0.0724
     30 C         141.9115  142.3247  164.5484 C.ar    1  UNL1       -0.0225
     31 C         141.0756  141.2767  165.2213 C.ar    1  UNL1       -0.0043
     32 C         141.7268  140.0564  165.8017 C.ar    1  UNL1        0.0035
     33 C         143.2139  139.8841  165.7090 C.ar    1  UNL1        0.0714
     34 C         144.0499  140.9321  165.0361 C.ar    1  UNL1        0.0035
     35 C         143.3987  142.1524  164.4557 C.ar    1  UNL1       -0.0043
     36 C         143.8651  138.6638  166.2894 C.3     1  UNL1        0.4186
     37 F         144.5163  137.4435  166.8698 F       1  UNL1       -0.1659
     38 F         144.9262  138.7268  165.2310 F       1  UNL1       -0.1659
     39 F         142.8041  138.6009  167.3477 F       1  UNL1       -0.1659
@<TRIPOS>BOND
     1     9    10    1
     2    10    11   ar
     3    11    12   ar
     4    12    16    1
     5    16    17   am
     6    16    18    2
     7    12    13   ar
     8    13    14   ar
     9    14    15   ar
    10    15     3    1
    11     3     4   ar
    12     4     5   ar
    13     5     6   ar
    14     6     2    1
    15     2     1    1
    16     1    21    1
    17    21    22    1
    18    22    23    1
    19    23    24    1
    20    24    25    1
    21    26    25    1
    22    26    27    1
    23    27    28    1
    24    28    30    1
    25    30    31   ar
    26    31    32   ar
    27    32    33   ar
    28    33    36    1
    29    36    37    1
    30    36    38    1
    31    36    39    1
    32    33    34   ar
    33    34    35   ar
    34    26    29    1
    35     6     7   ar
    36     7     8    1
    37    15    10   ar
    38     7     3   ar
    39    29    23    1
    40    28    26    1
    41    35    30   ar
    42    17    19    1
    43    17    20    1
@<TRIPOS>MOLECULE
*****
 39 43 0 0 0
SMALL
GASTEIGER

@<TRIPOS>ATOM
      1 C         141.5925  137.7375  161.3582 C.3     1  UNL1        0.0666
      2 S         141.7540  137.6083  162.8439 S.3     1  UNL1       -0.0756
      3 C         140.1361  139.7733  165.6298 C.ar    1  UNL1        0.1680
      4 N         138.9574  139.5216  164.7369 N.ar    1  UNL1       -0.1282
      5 N         139.4199  138.6800  163.5846 N.ar    1  UNL1       -0.1221
      6 C         140.8846  138.4115  163.7653 C.ar    1  UNL1        0.1932
      7 N         141.3273  139.0872  165.0293 N.ar    1  UNL1       -0.2884
      8 C         142.7170  139.0783  165.5937 C.3     1  UNL1        0.1340
      9 C         141.2797  142.5465  165.6689 C.3     1  UNL1        0.0522
     10 C         140.6974  141.9576  166.9196 C.ar    1  UNL1        0.0624
     11 N         140.6869  142.7554  168.1898 N.ar    1  UNL1       -0.2450
     12 C         140.1047  142.1665  169.4405 C.ar    1  UNL1        0.1338
     13 C         139.5329  140.7798  169.4210 C.ar    1  UNL1        0.0238
     14 C         139.5434  139.9821  168.1507 C.ar    1  UNL1        0.0059
     15 C         140.1256  140.5710  166.9000 C.ar    1  UNL1        0.0495
     16 C         140.0942  142.9642  170.7107 C.2     1  UNL1        0.2605
     17 N         139.8283  144.4398  170.6675 N.am    1  UNL1       -0.3241
     18 O         140.3495  142.2862  172.0242 O.2     1  UNL1       -0.2687
     19 H         139.6608  144.8847  169.8055 H       1  UNL1        0.1453
     20 H         139.8214  144.9633  171.5013 H       1  UNL1        0.1453
     21 C         142.7838  138.0386  160.4977 C.3     1  UNL1        0.0294
     22 C         142.8450  139.3223  159.7241 C.3     1  UNL1        0.0730
     23 N         141.5924  139.9079  159.1426 N.3     1  UNL1       -0.2726
     24 C         141.0537  139.6482  157.7670 C.3     1  UNL1        0.0721
     25 C         139.7870  140.4359  157.6089 C.3     1  UNL1        0.0190
     26 C         139.5429  141.1826  158.8868 C.3     1  UNL1        0.0201
     27 C         138.2717  141.8431  158.4421 C.3     1  UNL1        0.0061
     28 C         138.8105  142.1029  159.8177 C.3     1  UNL1        0.0237
     29 C         140.6587  140.8563  159.8347 C.3     1  UNL1        0.0724
     30 C         138.6987  142.7842  161.1493 C.ar    1  UNL1       -0.0225
     31 C         137.9008  142.1516  162.2508 C.ar    1  UNL1       -0.0043
     32 C         137.7890  142.8329  163.5825 C.ar    1  UNL1        0.0035
     33 C         138.4751  144.1468  163.8126 C.ar    1  UNL1        0.0714
     34 C         139.2729  144.7794  162.7111 C.ar    1  UNL1        0.0035
     35 C         139.3847  144.0981  161.3795 C.ar    1  UNL1       -0.0043
     36 C         138.3633  144.8281  165.1442 C.3     1  UNL1        0.4186
     37 F         138.2515  145.5095  166.4760 F       1  UNL1       -0.1659
     38 F         136.9347  144.3836  165.2517 F       1  UNL1       -0.1659
     39 F         139.7918  145.2727  165.0368 F       1  UNL1       -0.1659
@<TRIPOS>BOND
     1     9    10    1
     2    10    11   ar
     3    11    12   ar
     4    12    16    1
     5    16    17   am
     6    16    18    2
     7    12    13   ar
     8    13    14   ar
     9    14    15   ar
    10    15     3    1
    11     3     4   ar
    12     4     5   ar
    13     5     6   ar
    14     6     2    1
    15     2     1    1
    16     1    21    1
    17    21    22    1
    18    22    23    1
    19    23    24    1
    20    24    25    1
    21    26    25    1
    22    26    27    1
    23    27    28    1
    24    28    30    1
    25    30    31   ar
    26    31    32   ar
    27    32    33   ar
    28    33    36    1
    29    36    37    1
    30    36    38    1
    31    36    39    1
    32    33    34   ar
    33    34    35   ar
    34    26    29    1
    35     6     7   ar
    36     7     8    1
    37    15    10   ar
    38     7     3   ar
    39    29    23    1
    40    28    26    1
    41    35    30   ar
    42    17    19    1
    43    17    20    1
@<TRIPOS>MOLECULE
*****
 39 43 0 0 0
SMALL
GASTEIGER

@<TRIPOS>ATOM
      1 C         139.7081  143.5288  159.9673 C.3     1  UNL1        0.0666
      2 S         140.4574  144.0225  161.1693 S.3     1  UNL1       -0.0756
      3 C         140.5830  142.7052  164.8182 C.ar    1  UNL1        0.1680
      4 N         139.6798  141.6944  164.1760 N.ar    1  UNL1       -0.1282
      5 N         139.5228  142.0648  162.7309 N.ar    1  UNL1       -0.1221
      6 C         140.3290  143.3046  162.4800 C.ar    1  UNL1        0.1932
      7 N         140.9842  143.7005  163.7700 N.ar    1  UNL1       -0.2884
      8 C         141.8829  144.8837  163.9757 C.3     1  UNL1        0.1340
      9 C         143.3667  141.8721  165.5640 C.3     1  UNL1        0.0522
     10 C         142.4018  142.3020  166.6290 C.ar    1  UNL1        0.0624
     11 N         142.8289  142.3153  168.0669 N.ar    1  UNL1       -0.2450
     12 C         141.8640  142.7452  169.1318 C.ar    1  UNL1        0.1338
     13 C         140.4720  143.1618  168.7589 C.ar    1  UNL1        0.0238
     14 C         140.0450  143.1485  167.3211 C.ar    1  UNL1        0.0059
     15 C         141.0099  142.7186  166.2561 C.ar    1  UNL1        0.0495
     16 C         142.2910  142.7585  170.5697 C.2     1  UNL1        0.2605
     17 N         143.4704  143.5823  170.9942 N.am    1  UNL1       -0.3241
     18 O         141.5385  141.9481  171.5830 O.2     1  UNL1       -0.2687
     19 H         143.9643  144.1143  170.3291 H       1  UNL1        0.1453
     20 H         143.7507  143.5911  171.9380 H       1  UNL1        0.1453
     21 C         139.9039  142.1211  159.4875 C.3     1  UNL1        0.0294
     22 C         141.1910  141.7262  158.8263 C.3     1  UNL1        0.0730
     23 N         142.0757  140.6954  159.4627 N.3     1  UNL1       -0.2726
     24 C         143.3991  140.2238  158.9373 C.3     1  UNL1        0.0721
     25 C         143.9335  139.1923  159.8862 C.3     1  UNL1        0.0190
     26 C         142.9404  139.0263  160.9980 C.3     1  UNL1        0.0201
     27 C         143.7163  137.9839  161.7471 C.3     1  UNL1        0.0061
     28 C         142.3928  138.4555  162.2725 C.3     1  UNL1        0.0237
     29 C         141.7921  139.9554  160.7363 C.3     1  UNL1        0.0724
     30 C         141.3126  138.3983  163.3117 C.ar    1  UNL1       -0.0225
     31 C         141.5764  138.9103  164.6967 C.ar    1  UNL1       -0.0043
     32 C         140.4962  138.8531  165.7358 C.ar    1  UNL1        0.0035
     33 C         139.1523  138.2837  165.3900 C.ar    1  UNL1        0.0714
     34 C         138.8885  137.7716  164.0050 C.ar    1  UNL1        0.0035
     35 C         139.9687  137.8289  162.9658 C.ar    1  UNL1       -0.0043
     36 C         138.0721  138.2264  166.4291 C.3     1  UNL1        0.4186
     37 F         136.9918  138.1691  167.4683 F       1  UNL1       -0.1659
     38 F         138.2273  139.6985  166.6716 F       1  UNL1       -0.1659
     39 F         137.9168  136.7543  166.1867 F       1  UNL1       -0.1659
@<TRIPOS>BOND
     1     9    10    1
     2    10    11   ar
     3    11    12   ar
     4    12    16    1
     5    16    17   am
     6    16    18    2
     7    12    13   ar
     8    13    14   ar
     9    14    15   ar
    10    15     3    1
    11     3     4   ar
    12     4     5   ar
    13     5     6   ar
    14     6     2    1
    15     2     1    1
    16     1    21    1
    17    21    22    1
    18    22    23    1
    19    23    24    1
    20    24    25    1
    21    26    25    1
    22    26    27    1
    23    27    28    1
    24    28    30    1
    25    30    31   ar
    26    31    32   ar
    27    32    33   ar
    28    33    36    1
    29    36    37    1
    30    36    38    1
    31    36    39    1
    32    33    34   ar
    33    34    35   ar
    34    26    29    1
    35     6     7   ar
    36     7     8    1
    37    15    10   ar
    38     7     3   ar
    39    29    23    1
    40    28    26    1
    41    35    30   ar
    42    17    19    1
    43    17    20    1
@<TRIPOS>MOLECULE
*****
 39 43 0 0 0
SMALL
GASTEIGER

@<TRIPOS>ATOM
      1 C         138.7454  138.5344  161.1556 C.3     1  UNL1        0.0666
      2 S         138.6993  138.4940  162.6543 S.3     1  UNL1       -0.0756
      3 C         140.9364  140.2591  165.2899 C.ar    1  UNL1        0.1680
      4 N         141.8371  140.2708  164.0904 N.ar    1  UNL1       -0.1282
      5 N         141.1088  139.6110  162.9572 N.ar    1  UNL1       -0.1221
      6 C         139.7578  139.1916  163.4562 C.ar    1  UNL1        0.1932
      7 N         139.6512  139.5920  164.8978 N.ar    1  UNL1       -0.2884
      8 C         138.4674  139.3653  165.7907 C.3     1  UNL1        0.1340
      9 C         140.0164  143.0143  166.0395 C.3     1  UNL1        0.0522
     10 C         140.8033  142.1941  167.0183 C.ar    1  UNL1        0.0624
     11 N         141.1302  142.7516  168.3720 N.ar    1  UNL1       -0.2450
     12 C         141.9170  141.9314  169.3508 C.ar    1  UNL1        0.1338
     13 C         142.3771  140.5537  168.9760 C.ar    1  UNL1        0.0238
     14 C         142.0501  139.9963  167.6223 C.ar    1  UNL1        0.0059
     15 C         141.2633  140.8165  166.6435 C.ar    1  UNL1        0.0495
     16 C         142.2440  142.4888  170.7045 C.2     1  UNL1        0.2605
     17 N         143.3313  143.5115  170.8518 N.am    1  UNL1       -0.3241
     18 O         141.4836  142.0235  171.9108 O.2     1  UNL1       -0.2687
     19 H         143.8304  143.8170  170.0601 H       1  UNL1        0.1453
     20 H         143.5458  143.8774  171.7403 H       1  UNL1        0.1453
     21 C         138.2069  139.7259  160.4205 C.3     1  UNL1        0.0294
     22 C         138.7766  140.1041  159.0855 C.3     1  UNL1        0.0730
     23 N         139.1219  141.5347  158.7954 N.3     1  UNL1       -0.2726
     24 C         138.6437  142.3365  157.6213 C.3     1  UNL1        0.0721
     25 C         139.2322  143.7120  157.7288 C.3     1  UNL1        0.0190
     26 C         140.0742  143.7603  158.9693 C.3     1  UNL1        0.0201
     27 C         140.5056  145.1881  158.8105 C.3     1  UNL1        0.0061
     28 C         140.9838  144.3863  159.9845 C.3     1  UNL1        0.0237
     29 C         140.0060  142.4146  159.6285 C.3     1  UNL1        0.0724
     30 C         141.7851  144.2848  161.2485 C.ar    1  UNL1       -0.0225
     31 C         141.3219  144.9900  162.4888 C.ar    1  UNL1       -0.0043
     32 C         142.1232  144.8885  163.7528 C.ar    1  UNL1        0.0035
     33 C         143.3875  144.0818  163.7765 C.ar    1  UNL1        0.0714
     34 C         143.8507  143.3766  162.5362 C.ar    1  UNL1        0.0035
     35 C         143.0494  143.4781  161.2722 C.ar    1  UNL1       -0.0043
     36 C         144.1888  143.9803  165.0405 C.3     1  UNL1        0.4186
     37 F         144.9901  143.8788  166.3045 F       1  UNL1       -0.1659
     38 F         143.8895  142.5122  165.1123 F       1  UNL1       -0.1659
     39 F         144.4881  145.4484  164.9687 F       1  UNL1       -0.1659
@<TRIPOS>BOND
     1     9    10    1
     2    10    11   ar
     3    11    12   ar
     4    12    16    1
     5    16    17   am
     6    16    18    2
     7    12    13   ar
     8    13    14   ar
     9    14    15   ar
    10    15     3    1
    11     3     4   ar
    12     4     5   ar
    13     5     6   ar
    14     6     2    1
    15     2     1    1
    16     1    21    1
    17    21    22    1
    18    22    23    1
    19    23    24    1
    20    24    25    1
    21    26    25    1
    22    26    27    1
    23    27    28    1
    24    28    30    1
    25    30    31   ar
    26    31    32   ar
    27    32    33   ar
    28    33    36    1
    29    36    37    1
    30    36    38    1
    31    36    39    1
    32    33    34   ar
    33    34    35   ar
    34    26    29    1
    35     6     7   ar
    36     7     8    1
    37    15    10   ar
    38     7     3   ar
    39    29    23    1
    40    28    26    1
    41    35    30   ar
    42    17    19    1
    43    17    20    1
@<TRIPOS>MOLECULE
*****
 39 43 0 0 0
SMALL
GASTEIGER

@<TRIPOS>ATOM
      1 C         143.5159  142.9523  160.1958 C.3     1  UNL1        0.0666
      2 S         143.5822  141.5594  160.7483 S.3     1  UNL1       -0.0756
      3 C         143.8142  141.0422  164.5882 C.ar    1  UNL1        0.1680
      4 N         145.2597  140.9577  164.1964 N.ar    1  UNL1       -0.1282
      5 N         145.3487  141.1412  162.7103 N.ar    1  UNL1       -0.1221
      6 C         143.9582  141.3391  162.1836 C.ar    1  UNL1        0.1932
      7 N         143.0098  141.2779  163.3441 N.ar    1  UNL1       -0.2884
      8 C         141.5189  141.4264  163.2732 C.3     1  UNL1        0.1340
      9 C         142.9779  138.3558  165.6291 C.3     1  UNL1        0.0522
     10 C         142.8507  139.5704  166.5000 C.ar    1  UNL1        0.0624
     11 N         142.3054  139.4417  167.8915 N.ar    1  UNL1       -0.2450
     12 C         142.1782  140.6563  168.7624 C.ar    1  UNL1        0.1338
     13 C         142.5963  141.9996  168.2420 C.ar    1  UNL1        0.0238
     14 C         143.1417  142.1282  166.8505 C.ar    1  UNL1        0.0059
     15 C         143.2689  140.9136  165.9796 C.ar    1  UNL1        0.0495
     16 C         141.6328  140.5277  170.1538 C.2     1  UNL1        0.2605
     17 N         142.1804  141.3850  171.2562 N.am    1  UNL1       -0.3241
     18 O         140.5399  139.5419  170.4429 O.2     1  UNL1       -0.2687
     19 H         142.8978  142.0320  171.0665 H       1  UNL1        0.1453
     20 H         141.8225  141.3005  172.1694 H       1  UNL1        0.1453
     21 C         142.3137  143.8088  160.4629 C.3     1  UNL1        0.0294
     22 C         141.2979  144.0336  159.3824 C.3     1  UNL1        0.0730
     23 N         140.2324  143.0084  159.1297 N.3     1  UNL1       -0.2726
     24 C         139.6195  142.6832  157.7998 C.3     1  UNL1        0.0721
     25 C         138.6011  141.6023  158.0107 C.3     1  UNL1        0.0190
     26 C         138.5846  141.2595  159.4709 C.3     1  UNL1        0.0201
     27 C         137.5232  140.2042  159.3722 C.3     1  UNL1        0.0061
     28 C         138.1361  140.5294  160.7021 C.3     1  UNL1        0.0237
     29 C         139.5928  142.1285  160.1625 C.3     1  UNL1        0.0724
     30 C         138.2310  140.2956  162.1807 C.ar    1  UNL1       -0.0225
     31 C         137.8453  141.3838  163.1384 C.ar    1  UNL1       -0.0043
     32 C         137.9402  141.1500  164.6170 C.ar    1  UNL1        0.0035
     33 C         138.4210  139.8281  165.1380 C.ar    1  UNL1        0.0714
     34 C         138.8067  138.7399  164.1803 C.ar    1  UNL1        0.0035
     35 C         138.7118  138.9737  162.7017 C.ar    1  UNL1       -0.0043
     36 C         138.5159  139.5943  166.6166 C.3     1  UNL1        0.4186
     37 F         138.6109  139.3606  168.0953 F       1  UNL1       -0.1659
     38 F         137.5402  138.4610  166.5000 F       1  UNL1       -0.1659
     39 F         139.4916  140.7276  166.7331 F       1  UNL1       -0.1659
@<TRIPOS>BOND
     1     9    10    1
     2    10    11   ar
     3    11    12   ar
     4    12    16    1
     5    16    17   am
     6    16    18    2
     7    12    13   ar
     8    13    14   ar
     9    14    15   ar
    10    15     3    1
    11     3     4   ar
    12     4     5   ar
    13     5     6   ar
    14     6     2    1
    15     2     1    1
    16     1    21    1
    17    21    22    1
    18    22    23    1
    19    23    24    1
    20    24    25    1
    21    26    25    1
    22    26    27    1
    23    27    28    1
    24    28    30    1
    25    30    31   ar
    26    31    32   ar
    27    32    33   ar
    28    33    36    1
    29    36    37    1
    30    36    38    1
    31    36    39    1
    32    33    34   ar
    33    34    35   ar
    34    26    29    1
    35     6     7   ar
    36     7     8    1
    37    15    10   ar
    38     7     3   ar
    39    29    23    1
    40    28    26    1
    41    35    30   ar
    42    17    19    1
    43    17    20    1
