@<TRIPOS>MOLECULE
*****
 32 34 0 0 0
SMALL
GASTEIGER

@<TRIPOS>ATOM
      1 C         140.7742  139.8957  166.0763 C.ar    1  UNL1        0.1079
      2 N         139.9300  140.7396  166.9847 N.ar    1  UNL1       -0.1681
      3 N         140.6725  140.9164  168.2759 N.ar    1  UNL1       -0.2394
      4 C         141.9756  140.1818  168.1656 C.ar    1  UNL1        0.1280
      5 N         143.0307  140.0935  169.2281 N.pl3   1  UNL1       -0.3427
      6 C         142.0385  139.5509  166.8061 C.ar    1  UNL1        0.1031
      7 H         142.8971  140.5441  170.0932 H       1  UNL1        0.1437
      8 H         143.8568  139.5848  169.0605 H       1  UNL1        0.1437
      9 C         139.5307  139.1485  159.3572 C.ar    1  UNL1        0.1386
     10 C         140.0741  140.5243  159.6060 C.ar    1  UNL1        0.0369
     11 C         140.4315  140.9489  160.9995 C.ar    1  UNL1        0.0031
     12 C         140.2455  139.9977  162.1443 C.ar    1  UNL1        0.0002
     13 C         140.6028  140.4223  163.5379 C.ar    1  UNL1        0.0016
     14 C         140.4168  139.4711  164.6827 C.ar    1  UNL1        0.0196
     15 C         139.8734  138.0953  164.4340 C.ar    1  UNL1        0.0016
     16 C         139.5160  137.6707  163.0404 C.ar    1  UNL1        0.0001
     17 C         139.7021  138.6219  161.8956 C.ar    1  UNL1        0.0030
     18 C         139.3447  138.1974  160.5020 C.ar    1  UNL1        0.0369
     19 O         139.1734  138.7239  157.9637 O.3     1  UNL1       -0.4755
     20 C         141.5387  137.8111  157.3964 C.3     1  UNL1        0.0512
     21 C         140.0494  137.7544  157.2272 C.3     1  UNL1        0.2055
     22 C         143.1674  138.7211  166.2706 C.2     1  UNL1        0.2470
     23 N         143.5117  138.7752  164.8117 N.am    1  UNL1       -0.3252
     24 O         143.9521  137.8369  167.1940 O.2     1  UNL1       -0.2702
     25 H         142.9968  139.3555  164.2055 H       1  UNL1        0.1453
     26 H         144.2527  138.2305  164.4602 H       1  UNL1        0.1453
     27 C         140.1958  141.6917  169.4682 C.3     1  UNL1        0.1147
     28 C         139.4370  140.4895  169.9466 C.3     1  UNL1        0.0270
     29 C         140.9545  142.8941  168.9897 C.3     1  UNL1        0.0270
     30 C         139.7190  142.4671  170.6604 C.3     1  UNL1        0.1594
     31 O         140.4095  142.3094  171.9827 O.3     1  UNL1       -0.3800
     32 H         140.2755  141.4069  172.3119 H       1  UNL1        0.2105
@<TRIPOS>BOND
     1    20    21    1
     2    21    19    1
     3    19     9    1
     4     9    10   ar
     5    10    11   ar
     6    11    12   ar
     7    12    13   ar
     8    13    14   ar
     9    14     1    1
    10     1     2   ar
    11     2     3   ar
    12     3    27    1
    13    27    28    1
    14    27    29    1
    15    27    30    1
    16    30    31    1
    17     3     4   ar
    18     4     5    1
    19     4     6   ar
    20     6    22    1
    21    22    23   am
    22    22    24    2
    23    14    15   ar
    24    15    16   ar
    25    16    17   ar
    26    17    18   ar
    27    18     9   ar
    28    17    12   ar
    29     6     1   ar
    30    31    32    1
    31     5     7    1
    32     5     8    1
    33    23    25    1
    34    23    26    1
@<TRIPOS>MOLECULE
*****
 32 34 0 0 0
SMALL
GASTEIGER

@<TRIPOS>ATOM
      1 C         140.1926  142.3495  165.9321 C.ar    1  UNL1        0.1079
      2 N         140.9111  142.6787  167.2069 N.ar    1  UNL1       -0.1681
      3 N         140.5501  141.6376  168.2247 N.ar    1  UNL1       -0.2394
      4 C         139.6084  140.6650  167.5788 C.ar    1  UNL1        0.1280
      5 N         138.9952  139.4634  168.2347 N.pl3   1  UNL1       -0.3427
      6 C         139.3874  141.1049  166.1619 C.ar    1  UNL1        0.1031
      7 H         139.2024  139.2561  169.1745 H       1  UNL1        0.1437
      8 H         138.3856  138.8819  167.7252 H       1  UNL1        0.1437
      9 C         141.3642  144.9862  159.6931 C.ar    1  UNL1        0.1386
     10 C         142.1675  143.7297  159.8539 C.ar    1  UNL1        0.0369
     11 C         142.0938  142.9511  161.1338 C.ar    1  UNL1        0.0031
     12 C         141.2169  143.4290  162.2530 C.ar    1  UNL1        0.0002
     13 C         141.1432  142.6503  163.5330 C.ar    1  UNL1        0.0016
     14 C         140.2663  143.1282  164.6521 C.ar    1  UNL1        0.0196
     15 C         139.4629  144.3847  164.4913 C.ar    1  UNL1        0.0016
     16 C         139.5366  145.1634  163.2114 C.ar    1  UNL1        0.0001
     17 C         140.4136  144.6855  162.0922 C.ar    1  UNL1        0.0030
     18 C         140.4873  145.4641  160.8122 C.ar    1  UNL1        0.0369
     19 O         141.4379  145.7649  158.4131 O.3     1  UNL1       -0.4755
     20 C         140.3183  146.3830  156.1516 C.3     1  UNL1        0.0512
     21 C         140.2015  145.9734  157.5899 C.3     1  UNL1        0.2055
     22 C         138.5146  140.4206  165.1521 C.2     1  UNL1        0.2470
     23 N         137.5501  141.2216  164.3286 N.am    1  UNL1       -0.3252
     24 O         138.6061  138.9349  164.9658 O.2     1  UNL1       -0.2702
     25 H         137.4900  142.1967  164.4508 H       1  UNL1        0.1453
     26 H         136.9773  140.7724  163.6659 H       1  UNL1        0.1453
     27 C         141.0440  141.5794  169.6398 C.3     1  UNL1        0.1147
     28 C         142.1610  140.6739  169.2127 C.3     1  UNL1        0.0270
     29 C         139.9269  142.4849  170.0669 C.3     1  UNL1        0.0270
     30 C         141.5378  141.5211  171.0550 C.3     1  UNL1        0.1594
     31 O         140.6917  142.0654  172.1676 O.3     1  UNL1       -0.3800
     32 H         140.6029  143.0259  172.0661 H       1  UNL1        0.2105
@<TRIPOS>BOND
     1    20    21    1
     2    21    19    1
     3    19     9    1
     4     9    10   ar
     5    10    11   ar
     6    11    12   ar
     7    12    13   ar
     8    13    14   ar
     9    14     1    1
    10     1     2   ar
    11     2     3   ar
    12     3    27    1
    13    27    28    1
    14    27    29    1
    15    27    30    1
    16    30    31    1
    17     3     4   ar
    18     4     5    1
    19     4     6   ar
    20     6    22    1
    21    22    23   am
    22    22    24    2
    23    14    15   ar
    24    15    16   ar
    25    16    17   ar
    26    17    18   ar
    27    18     9   ar
    28    17    12   ar
    29     6     1   ar
    30    31    32    1
    31     5     7    1
    32     5     8    1
    33    23    25    1
    34    23    26    1
@<TRIPOS>MOLECULE
*****
 32 34 0 0 0
SMALL
GASTEIGER

@<TRIPOS>ATOM
      1 C         140.9545  140.4741  166.0568 C.ar    1  UNL1        0.1079
      2 N         141.7889  141.0363  167.1693 N.ar    1  UNL1       -0.1681
      3 N         141.0244  140.8742  168.4497 N.ar    1  UNL1       -0.2394
      4 C         139.7174  140.2118  168.1285 C.ar    1  UNL1        0.1280
      5 N         138.6425  139.8586  169.1132 N.pl3   1  UNL1       -0.3427
      6 C         139.6742  139.9645  166.6496 C.ar    1  UNL1        0.1031
      7 H         138.7640  140.0622  170.0687 H       1  UNL1        0.1437
      8 H         137.8154  139.4231  168.8039 H       1  UNL1        0.1437
      9 C         143.2751  139.1451  159.7245 C.ar    1  UNL1        0.1386
     10 C         143.6998  138.0397  160.6452 C.ar    1  UNL1        0.0369
     11 C         143.3206  138.0844  162.0958 C.ar    1  UNL1        0.0031
     12 C         142.5167  139.2345  162.6257 C.ar    1  UNL1        0.0002
     13 C         142.1375  139.2793  164.0763 C.ar    1  UNL1        0.0016
     14 C         141.3337  140.4294  164.6062 C.ar    1  UNL1        0.0196
     15 C         140.9090  141.5349  163.6856 C.ar    1  UNL1        0.0016
     16 C         141.2882  141.4902  162.2350 C.ar    1  UNL1        0.0001
     17 C         142.0921  140.3400  161.7051 C.ar    1  UNL1        0.0030
     18 C         142.4713  140.2953  160.2545 C.ar    1  UNL1        0.0369
     19 O         143.6544  139.1004  158.2739 O.3     1  UNL1       -0.4755
     20 C         142.8000  136.9088  157.1709 C.3     1  UNL1        0.0512
     21 C         142.7648  138.4038  157.2873 C.3     1  UNL1        0.2055
     22 C         138.5485  139.3207  165.8959 C.2     1  UNL1        0.2470
     23 N         137.7776  140.1105  164.8800 N.am    1  UNL1       -0.3252
     24 O         138.1935  137.8870  166.1580 O.2     1  UNL1       -0.2702
     25 H         138.0105  141.0514  164.7079 H       1  UNL1        0.1453
     26 H         137.0387  139.6879  164.3853 H       1  UNL1        0.1453
     27 C         141.4857  141.2996  169.8120 C.3     1  UNL1        0.1147
     28 C         142.1706  139.9775  169.9931 C.3     1  UNL1        0.0270
     29 C         140.8008  142.6219  169.6309 C.3     1  UNL1        0.0270
     30 C         141.9470  141.7252  171.1744 C.3     1  UNL1        0.1594
     31 O         142.2875  140.6924  172.2075 O.3     1  UNL1       -0.3800
     32 H         141.4861  140.2040  172.4528 H       1  UNL1        0.2105
@<TRIPOS>BOND
     1    20    21    1
     2    21    19    1
     3    19     9    1
     4     9    10   ar
     5    10    11   ar
     6    11    12   ar
     7    12    13   ar
     8    13    14   ar
     9    14     1    1
    10     1     2   ar
    11     2     3   ar
    12     3    27    1
    13    27    28    1
    14    27    29    1
    15    27    30    1
    16    30    31    1
    17     3     4   ar
    18     4     5    1
    19     4     6   ar
    20     6    22    1
    21    22    23   am
    22    22    24    2
    23    14    15   ar
    24    15    16   ar
    25    16    17   ar
    26    17    18   ar
    27    18     9   ar
    28    17    12   ar
    29     6     1   ar
    30    31    32    1
    31     5     7    1
    32     5     8    1
    33    23    25    1
    34    23    26    1
@<TRIPOS>MOLECULE
*****
 32 34 0 0 0
SMALL
GASTEIGER

@<TRIPOS>ATOM
      1 C         139.9562  141.6309  166.2496 C.ar    1  UNL1        0.1079
      2 N         140.8564  142.5595  167.0093 N.ar    1  UNL1       -0.1681
      3 N         141.0760  141.9784  168.3746 N.ar    1  UNL1       -0.2394
      4 C         140.3115  140.6907  168.4588 C.ar    1  UNL1        0.1280
      5 N         140.2498  139.7779  169.6475 N.pl3   1  UNL1       -0.3427
      6 C         139.6193  140.4758  167.1454 C.ar    1  UNL1        0.1031
      7 H         140.7413  140.0062  170.4694 H       1  UNL1        0.1437
      8 H         139.7178  138.9506  169.6058 H       1  UNL1        0.1437
      9 C         138.9361  142.0560  159.4651 C.ar    1  UNL1        0.1386
     10 C         140.3126  141.5182  159.7220 C.ar    1  UNL1        0.0369
     11 C         140.7919  141.3257  161.1302 C.ar    1  UNL1        0.0031
     12 C         139.8947  141.6709  162.2816 C.ar    1  UNL1        0.0002
     13 C         140.3740  141.4783  163.6899 C.ar    1  UNL1        0.0016
     14 C         139.4768  141.8235  164.8413 C.ar    1  UNL1        0.0196
     15 C         138.1003  142.3613  164.5845 C.ar    1  UNL1        0.0016
     16 C         137.6209  142.5539  163.1763 C.ar    1  UNL1        0.0001
     17 C         138.5182  142.2087  162.0248 C.ar    1  UNL1        0.0030
     18 C         138.0389  142.4012  160.6166 C.ar    1  UNL1        0.0369
     19 O         138.4568  142.2486  158.0569 O.3     1  UNL1       -0.4755
     20 C         136.5768  141.1004  156.6795 C.3     1  UNL1        0.0512
     21 C         137.9564  141.0752  157.2679 C.3     1  UNL1        0.2055
     22 C         138.7441  139.3107  166.7903 C.2     1  UNL1        0.2470
     23 N         138.8262  138.7002  165.4226 N.am    1  UNL1       -0.3252
     24 O         137.7865  138.7558  167.8029 O.2     1  UNL1       -0.2702
     25 H         139.4546  139.0643  164.7579 H       1  UNL1        0.1453
     26 H         138.2517  137.9355  165.1895 H       1  UNL1        0.1453
     27 C         141.9132  142.5795  169.4645 C.3     1  UNL1        0.1147
     28 C         140.7360  143.3883  169.9228 C.3     1  UNL1        0.0270
     29 C         143.0905  141.7707  169.0062 C.3     1  UNL1        0.0270
     30 C         142.7504  143.1805  170.5543 C.3     1  UNL1        0.1594
     31 O         144.2465  143.1625  170.4472 O.3     1  UNL1       -0.3800
     32 H         144.5624  142.2462  170.4864 H       1  UNL1        0.2105
@<TRIPOS>BOND
     1    20    21    1
     2    21    19    1
     3    19     9    1
     4     9    10   ar
     5    10    11   ar
     6    11    12   ar
     7    12    13   ar
     8    13    14   ar
     9    14     1    1
    10     1     2   ar
    11     2     3   ar
    12     3    27    1
    13    27    28    1
    14    27    29    1
    15    27    30    1
    16    30    31    1
    17     3     4   ar
    18     4     5    1
    19     4     6   ar
    20     6    22    1
    21    22    23   am
    22    22    24    2
    23    14    15   ar
    24    15    16   ar
    25    16    17   ar
    26    17    18   ar
    27    18     9   ar
    28    17    12   ar
    29     6     1   ar
    30    31    32    1
    31     5     7    1
    32     5     8    1
    33    23    25    1
    34    23    26    1
@<TRIPOS>MOLECULE
*****
 32 34 0 0 0
SMALL
GASTEIGER

@<TRIPOS>ATOM
      1 C         140.8282  139.5245  166.2368 C.ar    1  UNL1        0.1079
      2 N         141.8792  139.8911  167.2423 N.ar    1  UNL1       -0.1681
      3 N         141.1979  140.1401  168.5552 N.ar    1  UNL1       -0.2394
      4 C         139.7258  139.9273  168.3612 C.ar    1  UNL1        0.1280
      5 N         138.6679  140.0699  169.4150 N.pl3   1  UNL1       -0.3427
      6 C         139.4972  139.5469  166.9284 C.ar    1  UNL1        0.1031
      7 H         138.9181  140.3251  170.3324 H       1  UNL1        0.1437
      8 H         137.7233  139.9083  169.1893 H       1  UNL1        0.1437
      9 C         142.1035  139.2929  159.4863 C.ar    1  UNL1        0.1386
     10 C         142.1884  140.7157  159.9535 C.ar    1  UNL1        0.0369
     11 C         141.9504  141.0466  161.3970 C.ar    1  UNL1        0.0031
     12 C         141.6273  139.9547  162.3734 C.ar    1  UNL1        0.0002
     13 C         141.3893  140.2856  163.8169 C.ar    1  UNL1        0.0016
     14 C         141.0663  139.1936  164.7933 C.ar    1  UNL1        0.0196
     15 C         140.9813  137.7707  164.3261 C.ar    1  UNL1        0.0016
     16 C         141.2194  137.4398  162.8825 C.ar    1  UNL1        0.0001
     17 C         141.5424  138.5319  161.9062 C.ar    1  UNL1        0.0030
     18 C         141.7805  138.2010  160.4626 C.ar    1  UNL1        0.0369
     19 O         142.3416  138.9620  158.0427 O.3     1  UNL1       -0.4755
     20 C         143.2063  137.2776  156.2637 C.3     1  UNL1        0.0512
     21 C         142.6843  137.5579  157.6418 C.3     1  UNL1        0.2055
     22 C         138.1708  139.2423  166.2978 C.2     1  UNL1        0.2470
     23 N         137.7613  139.9432  165.0365 N.am    1  UNL1       -0.3252
     24 O         137.2537  138.2366  166.9285 O.2     1  UNL1       -0.2702
     25 H         138.3631  140.6032  164.6224 H       1  UNL1        0.1453
     26 H         136.8906  139.7432  164.6226 H       1  UNL1        0.1453
     27 C         141.8705  140.5328  169.8371 C.3     1  UNL1        0.1147
     28 C         142.1973  139.0939  170.1066 C.3     1  UNL1        0.0270
     29 C         141.5436  141.9718  169.5677 C.3     1  UNL1        0.0270
     30 C         142.5431  140.9256  171.1190 C.3     1  UNL1        0.1594
     31 O         142.0917  142.1503  171.8582 O.3     1  UNL1       -0.3800
     32 H         142.2837  142.9383  171.3261 H       1  UNL1        0.2105
@<TRIPOS>BOND
     1    20    21    1
     2    21    19    1
     3    19     9    1
     4     9    10   ar
     5    10    11   ar
     6    11    12   ar
     7    12    13   ar
     8    13    14   ar
     9    14     1    1
    10     1     2   ar
    11     2     3   ar
    12     3    27    1
    13    27    28    1
    14    27    29    1
    15    27    30    1
    16    30    31    1
    17     3     4   ar
    18     4     5    1
    19     4     6   ar
    20     6    22    1
    21    22    23   am
    22    22    24    2
    23    14    15   ar
    24    15    16   ar
    25    16    17   ar
    26    17    18   ar
    27    18     9   ar
    28    17    12   ar
    29     6     1   ar
    30    31    32    1
    31     5     7    1
    32     5     8    1
    33    23    25    1
    34    23    26    1
@<TRIPOS>MOLECULE
*****
 32 34 0 0 0
SMALL
GASTEIGER

@<TRIPOS>ATOM
      1 C         141.3316  142.6260  165.7154 C.ar    1  UNL1        0.1079
      2 N         140.2921  142.4973  166.7892 N.ar    1  UNL1       -0.1681
      3 N         140.9980  142.4145  168.1102 N.ar    1  UNL1       -0.2394
      4 C         142.4737  142.4919  167.8528 C.ar    1  UNL1        0.1280
      5 N         143.5537  142.4465  168.8928 N.pl3   1  UNL1       -0.3427
      6 C         142.6800  142.6226  166.3727 C.ar    1  UNL1        0.1031
      7 H         143.3173  142.3585  169.8444 H       1  UNL1        0.1437
      8 H         144.4989  142.5048  168.6237 H       1  UNL1        0.1437
      9 C         140.1065  144.4252  159.1953 C.ar    1  UNL1        0.1386
     10 C         140.1952  145.6630  160.0379 C.ar    1  UNL1        0.0369
     11 C         140.4579  145.5507  161.5104 C.ar    1  UNL1        0.0031
     12 C         140.6320  144.2006  162.1404 C.ar    1  UNL1        0.0002
     13 C         140.8947  144.0883  163.6129 C.ar    1  UNL1        0.0016
     14 C         141.0688  142.7383  164.2429 C.ar    1  UNL1        0.0196
     15 C         140.9802  141.5004  163.4003 C.ar    1  UNL1        0.0016
     16 C         140.7175  141.6127  161.9278 C.ar    1  UNL1        0.0001
     17 C         140.5434  142.9628  161.2978 C.ar    1  UNL1        0.0030
     18 C         140.2807  143.0751  159.8253 C.ar    1  UNL1        0.0369
     19 O         139.8438  144.5375  157.7228 O.3     1  UNL1       -0.4755
     20 C         141.9550  145.7280  156.7871 C.3     1  UNL1        0.0512
     21 C         140.4641  145.6518  156.9331 C.3     1  UNL1        0.2055
     22 C         144.0022  142.7309  165.6729 C.2     1  UNL1        0.2470
     23 N         144.8819  143.9222  165.9117 N.am    1  UNL1       -0.3252
     24 O         144.4450  141.6478  164.7343 O.2     1  UNL1       -0.2702
     25 H         144.5913  144.6331  166.5277 H       1  UNL1        0.1453
     26 H         145.7497  143.9932  165.4523 H       1  UNL1        0.1453
     27 C         140.3432  142.2781  169.4527 C.3     1  UNL1        0.1147
     28 C         140.4467  143.7610  169.6539 C.3     1  UNL1        0.0270
     29 C         140.2397  140.7952  169.2516 C.3     1  UNL1        0.0270
     30 C         139.6884  142.1417  170.7953 C.3     1  UNL1        0.1594
     31 O         140.5161  142.2132  172.0442 O.3     1  UNL1       -0.3800
     32 H         141.1164  141.4519  172.0783 H       1  UNL1        0.2105
@<TRIPOS>BOND
     1    20    21    1
     2    21    19    1
     3    19     9    1
     4     9    10   ar
     5    10    11   ar
     6    11    12   ar
     7    12    13   ar
     8    13    14   ar
     9    14     1    1
    10     1     2   ar
    11     2     3   ar
    12     3    27    1
    13    27    28    1
    14    27    29    1
    15    27    30    1
    16    30    31    1
    17     3     4   ar
    18     4     5    1
    19     4     6   ar
    20     6    22    1
    21    22    23   am
    22    22    24    2
    23    14    15   ar
    24    15    16   ar
    25    16    17   ar
    26    17    18   ar
    27    18     9   ar
    28    17    12   ar
    29     6     1   ar
    30    31    32    1
    31     5     7    1
    32     5     8    1
    33    23    25    1
    34    23    26    1
@<TRIPOS>MOLECULE
*****
 32 34 0 0 0
SMALL
GASTEIGER

@<TRIPOS>ATOM
      1 C         140.2350  140.1864  165.7351 C.ar    1  UNL1        0.1079
      2 N         139.6176  141.0573  166.7887 N.ar    1  UNL1       -0.1681
      3 N         140.4672  140.9664  168.0216 N.ar    1  UNL1       -0.2394
      4 C         141.6096  140.0392  167.7299 C.ar    1  UNL1        0.1280
      5 N         142.7035  139.6606  168.6839 N.pl3   1  UNL1       -0.3427
      6 C         141.4662  139.5571  166.3168 C.ar    1  UNL1        0.1031
      7 H         142.7116  140.0313  169.5959 H       1  UNL1        0.1437
      8 H         143.4134  139.0412  168.3980 H       1  UNL1        0.1437
      9 C         138.4985  140.3383  159.0859 C.ar    1  UNL1        0.1386
     10 C         139.3723  141.5184  159.3923 C.ar    1  UNL1        0.0369
     11 C         139.8943  141.7241  160.7834 C.ar    1  UNL1        0.0031
     12 C         139.5426  140.7496  161.8681 C.ar    1  UNL1        0.0002
     13 C         140.0647  140.9552  163.2592 C.ar    1  UNL1        0.0016
     14 C         139.7130  139.9807  164.3440 C.ar    1  UNL1        0.0196
     15 C         138.8392  138.8006  164.0376 C.ar    1  UNL1        0.0016
     16 C         138.3172  138.5950  162.6465 C.ar    1  UNL1        0.0001
     17 C         138.6689  139.5695  161.5617 C.ar    1  UNL1        0.0030
     18 C         138.1468  139.3639  160.1706 C.ar    1  UNL1        0.0369
     19 O         137.9765  140.1327  157.6948 O.3     1  UNL1       -0.4755
     20 C         135.9119  140.9773  156.3628 C.3     1  UNL1        0.0512
     21 C         137.2456  141.2410  156.9965 C.3     1  UNL1        0.2055
     22 C         142.3914  138.6118  165.6095 C.2     1  UNL1        0.2470
     23 N         143.8517  138.9353  165.4965 N.am    1  UNL1       -0.3252
     24 O         141.8563  137.3427  165.0151 O.2     1  UNL1       -0.2702
     25 H         144.2030  139.7682  165.8866 H       1  UNL1        0.1453
     26 H         144.4589  138.3148  165.0323 H       1  UNL1        0.1453
     27 C         140.2180  141.6777  169.3185 C.3     1  UNL1        0.1147
     28 C         141.1090  142.7997  168.8743 C.3     1  UNL1        0.0270
     29 C         139.3271  140.5556  169.7627 C.3     1  UNL1        0.0270
     30 C         139.9689  142.3889  170.6154 C.3     1  UNL1        0.1594
     31 O         140.7326  141.9959  171.8452 O.3     1  UNL1       -0.3800
     32 H         140.4861  141.0943  172.1045 H       1  UNL1        0.2105
@<TRIPOS>BOND
     1    20    21    1
     2    21    19    1
     3    19     9    1
     4     9    10   ar
     5    10    11   ar
     6    11    12   ar
     7    12    13   ar
     8    13    14   ar
     9    14     1    1
    10     1     2   ar
    11     2     3   ar
    12     3    27    1
    13    27    28    1
    14    27    29    1
    15    27    30    1
    16    30    31    1
    17     3     4   ar
    18     4     5    1
    19     4     6   ar
    20     6    22    1
    21    22    23   am
    22    22    24    2
    23    14    15   ar
    24    15    16   ar
    25    16    17   ar
    26    17    18   ar
    27    18     9   ar
    28    17    12   ar
    29     6     1   ar
    30    31    32    1
    31     5     7    1
    32     5     8    1
    33    23    25    1
    34    23    26    1
@<TRIPOS>MOLECULE
*****
 32 34 0 0 0
SMALL
GASTEIGER

@<TRIPOS>ATOM
      1 C         142.1480  141.7824  165.8130 C.ar    1  UNL1        0.1079
      2 N         141.7820  142.1615  167.2174 N.ar    1  UNL1       -0.1681
      3 N         142.1696  141.0277  168.1197 N.ar    1  UNL1       -0.2394
      4 C         142.7752  139.9477  167.2729 C.ar    1  UNL1        0.1280
      5 N         143.3017  138.6323  167.7653 N.pl3   1  UNL1       -0.3427
      6 C         142.7619  140.4141  165.8473 C.ar    1  UNL1        0.1031
      7 H         143.2665  138.4161  168.7251 H       1  UNL1        0.1437
      8 H         143.6825  137.9851  167.1286 H       1  UNL1        0.1437
      9 C         140.3463  144.6986  159.8549 C.ar    1  UNL1        0.1386
     10 C         139.5987  143.4083  160.0159 C.ar    1  UNL1        0.0369
     11 C         139.8095  142.5670  161.2397 C.ar    1  UNL1        0.0031
     12 C         140.7680  143.0160  162.3025 C.ar    1  UNL1        0.0002
     13 C         140.9788  142.1747  163.5263 C.ar    1  UNL1        0.0016
     14 C         141.9372  142.6237  164.5892 C.ar    1  UNL1        0.0196
     15 C         142.6850  143.9141  164.4282 C.ar    1  UNL1        0.0016
     16 C         142.4741  144.7554  163.2044 C.ar    1  UNL1        0.0001
     17 C         141.5156  144.3063  162.1415 C.ar    1  UNL1        0.0030
     18 C         141.3048  145.1477  160.9177 C.ar    1  UNL1        0.0369
     19 O         140.1355  145.5400  158.6311 O.3     1  UNL1       -0.4755
     20 C         142.2937  144.6344  157.5032 C.3     1  UNL1        0.0512
     21 C         141.2399  145.6945  157.6278 C.3     1  UNL1        0.2055
     22 C         143.2726  139.6470  164.6639 C.2     1  UNL1        0.2470
     23 N         144.7112  139.7670  164.2562 N.am    1  UNL1       -0.3252
     24 O         142.3448  138.7597  163.8879 O.2     1  UNL1       -0.2702
     25 H         145.3202  140.3493  164.7654 H       1  UNL1        0.1453
     26 H         145.0464  139.2635  163.4795 H       1  UNL1        0.1453
     27 C         141.9843  140.9818  169.6074 C.3     1  UNL1        0.1147
     28 C         143.3194  141.6395  169.7941 C.3     1  UNL1        0.0270
     29 C         140.6491  140.3240  169.4207 C.3     1  UNL1        0.0270
     30 C         141.7988  140.9358  171.0952 C.3     1  UNL1        0.1594
     31 O         142.0678  142.1577  171.9226 O.3     1  UNL1       -0.3800
     32 H         143.0128  142.3732  171.8834 H       1  UNL1        0.2105
@<TRIPOS>BOND
     1    20    21    1
     2    21    19    1
     3    19     9    1
     4     9    10   ar
     5    10    11   ar
     6    11    12   ar
     7    12    13   ar
     8    13    14   ar
     9    14     1    1
    10     1     2   ar
    11     2     3   ar
    12     3    27    1
    13    27    28    1
    14    27    29    1
    15    27    30    1
    16    30    31    1
    17     3     4   ar
    18     4     5    1
    19     4     6   ar
    20     6    22    1
    21    22    23   am
    22    22    24    2
    23    14    15   ar
    24    15    16   ar
    25    16    17   ar
    26    17    18   ar
    27    18     9   ar
    28    17    12   ar
    29     6     1   ar
    30    31    32    1
    31     5     7    1
    32     5     8    1
    33    23    25    1
    34    23    26    1
@<TRIPOS>MOLECULE
*****
 32 34 0 0 0
SMALL
GASTEIGER

@<TRIPOS>ATOM
      1 C         139.7113  141.0148  165.6975 C.ar    1  UNL1        0.1079
      2 N         139.8699  140.0190  166.8080 N.ar    1  UNL1       -0.1681
      3 N         140.2232  140.7701  168.0574 N.ar    1  UNL1       -0.2394
      4 C         140.2830  142.2302  167.7191 C.ar    1  UNL1        0.1280
      5 N         140.6030  143.3436  168.6720 N.pl3   1  UNL1       -0.3427
      6 C         139.9666  142.3816  166.2607 C.ar    1  UNL1        0.1031
      7 H         140.7981  143.1429  169.6159 H       1  UNL1        0.1437
      8 H         140.6178  144.2751  168.3535 H       1  UNL1        0.1437
      9 C         139.3356  139.1653  159.0878 C.ar    1  UNL1        0.1386
     10 C         140.7203  138.8927  159.5961 C.ar    1  UNL1        0.0369
     11 C         141.0723  139.2080  161.0197 C.ar    1  UNL1        0.0031
     12 C         140.0398  139.7961  161.9350 C.ar    1  UNL1        0.0002
     13 C         140.3918  140.1114  163.3586 C.ar    1  UNL1        0.0016
     14 C         139.3592  140.6995  164.2740 C.ar    1  UNL1        0.0196
     15 C         137.9745  140.9722  163.7657 C.ar    1  UNL1        0.0016
     16 C         137.6224  140.6568  162.3422 C.ar    1  UNL1        0.0001
     17 C         138.6551  140.0688  161.4268 C.ar    1  UNL1        0.0030
     18 C         138.3030  139.7534  160.0032 C.ar    1  UNL1        0.0369
     19 O         138.9836  138.8500  157.6643 O.3     1  UNL1       -0.4755
     20 C         140.3773  137.1677  156.2580 C.3     1  UNL1        0.0512
     21 C         140.0693  138.5780  156.6657 C.3     1  UNL1        0.2055
     22 C         139.9147  143.6727  165.4991 C.2     1  UNL1        0.2470
     23 N         140.9726  143.9875  164.4833 N.am    1  UNL1       -0.3252
     24 O         138.8048  144.6493  165.7532 O.2     1  UNL1       -0.2702
     25 H         141.7011  143.3466  164.3165 H       1  UNL1        0.1453
     26 H         140.9385  144.8350  163.9835 H       1  UNL1        0.1453
     27 C         140.4728  140.1670  169.4079 C.3     1  UNL1        0.1147
     28 C         139.0624  140.4821  169.8094 C.3     1  UNL1        0.0270
     29 C         141.8834  139.8519  169.0063 C.3     1  UNL1        0.0270
     30 C         140.7226  139.5639  170.7584 C.3     1  UNL1        0.1594
     31 O         139.5745  139.0425  171.5709 O.3     1  UNL1       -0.3800
     32 H         138.9981  139.7796  171.8264 H       1  UNL1        0.2105
@<TRIPOS>BOND
     1    20    21    1
     2    21    19    1
     3    19     9    1
     4     9    10   ar
     5    10    11   ar
     6    11    12   ar
     7    12    13   ar
     8    13    14   ar
     9    14     1    1
    10     1     2   ar
    11     2     3   ar
    12     3    27    1
    13    27    28    1
    14    27    29    1
    15    27    30    1
    16    30    31    1
    17     3     4   ar
    18     4     5    1
    19     4     6   ar
    20     6    22    1
    21    22    23   am
    22    22    24    2
    23    14    15   ar
    24    15    16   ar
    25    16    17   ar
    26    17    18   ar
    27    18     9   ar
    28    17    12   ar
    29     6     1   ar
    30    31    32    1
    31     5     7    1
    32     5     8    1
    33    23    25    1
    34    23    26    1
