@<TRIPOS>MOLECULE
*****
 32 37 0 0 0
SMALL
GASTEIGER

@<TRIPOS>ATOM
      1 C         140.4591  139.1455  164.9681 C.ar    1  UNL1        0.0351
      2 C         140.8584  137.7047  164.8471 C.ar    1  UNL1        0.0030
      3 C         141.1070  137.1064  163.4943 C.ar    1  UNL1        0.0003
      4 C         140.9563  137.9489  162.2624 C.ar    1  UNL1        0.0063
      5 C         140.5570  139.3897  162.3834 C.ar    1  UNL1        0.0740
      6 C         140.4063  140.2322  161.1516 C.ar    1  UNL1        0.2641
      7 O         140.6548  139.6340  159.7987 O.2     1  UNL1       -0.2669
      8 N         140.0070  141.6730  161.2726 N.ar    1  UNL1       -0.2725
      9 C         139.7584  142.2713  162.6255 C.ar    1  UNL1        0.1999
     10 N         139.9091  141.4288  163.8573 N.ar    1  UNL1       -0.2150
     11 C         140.3084  139.9880  163.7363 C.ar    1  UNL1        0.0901
     12 C         141.4041  143.2083  169.6631 C.3     1  UNL1        0.0237
     13 C         140.4600  142.0563  169.4852 C.3     1  UNL1        0.0985
     14 N         139.4455  141.5854  170.4847 N.am    1  UNL1       -0.3004
     15 C         138.7232  140.4110  169.8937 C.2     1  UNL1        0.2438
     16 O         137.6255  139.6288  170.5519 O.2     1  UNL1       -0.2704
     17 C         139.2913  140.1561  168.5291 C.2     1  UNL1        0.0563
     18 C         139.1960  139.2729  167.3205 C.2     1  UNL1        0.0209
     19 C         140.2105  139.7438  166.3210 C.2     1  UNL1        0.0777
     20 N         140.9328  140.9182  166.9119 N.2     1  UNL1       -0.2660
     21 C         140.3647  141.1730  168.2766 C.3     1  UNL1        0.1476
     22 H         139.2823  141.9781  171.3726 H       1  UNL1        0.1498
     23 C         139.8562  142.5155  160.0407 C.3     1  UNL1        0.0738
     24 C         141.2500  143.0573  159.9236 C.3     1  UNL1        0.0228
     25 C         139.2215  143.1698  158.8496 C.3     1  UNL1        0.0228
     26 C         138.4101  142.2663  159.7300 C.3     1  UNL1        0.0228
     27 N         139.3591  143.7121  162.7465 N.pl3   1  UNL1       -0.3074
     28 H         139.1200  144.2259  161.9414 H       1  UNL1        0.1495
     29 C         139.3240  144.3701  164.0940 C.3     1  UNL1        0.0570
     30 C         140.7550  144.8048  164.2088 C.3     1  UNL1        0.0196
     31 C         138.7920  144.8771  165.4017 C.3     1  UNL1        0.0196
     32 C         137.8808  144.1638  164.4471 C.3     1  UNL1        0.0196
@<TRIPOS>BOND
     1    13    12    1
     2    13    14    1
     3    14    15   am
     4    15    16    2
     5    15    17    1
     6    17    18    2
     7    18    19    1
     8    19     1    1
     9     1     2   ar
    10     2     3   ar
    11     3     4   ar
    12     4     5   ar
    13     5     6   ar
    14     6     7    2
    15     6     8   ar
    16     8    23    1
    17    23    24    1
    18    23    25    1
    19    25    26    1
    20     8     9   ar
    21     9    27    1
    22    27    29    1
    23    29    30    1
    24    29    31    1
    25    31    32    1
    26     9    10   ar
    27    10    11   ar
    28    19    20    2
    29    20    21    1
    30    21    13    1
    31    21    17    1
    32    11     1   ar
    33    11     5   ar
    34    26    23    1
    35    32    29    1
    36    14    22    1
    37    27    28    1
@<TRIPOS>MOLECULE
*****
 32 37 0 0 0
SMALL
GASTEIGER

@<TRIPOS>ATOM
      1 C         140.1350  139.8702  166.5075 C.ar    1  UNL1        0.0351
      2 C         138.9171  139.0609  166.8418 C.ar    1  UNL1        0.0030
      3 C         138.3798  138.0705  165.8517 C.ar    1  UNL1        0.0003
      4 C         139.0603  137.8895  164.5272 C.ar    1  UNL1        0.0063
      5 C         140.2781  138.6988  164.1929 C.ar    1  UNL1        0.0740
      6 C         140.9586  138.5177  162.8685 C.ar    1  UNL1        0.2641
      7 O         140.4213  137.5274  161.8783 O.2     1  UNL1       -0.2669
      8 N         142.1764  139.3271  162.5341 N.ar    1  UNL1       -0.2725
      9 C         142.7139  140.3175  163.5243 C.ar    1  UNL1        0.1999
     10 N         142.0334  140.4985  164.8487 N.ar    1  UNL1       -0.2150
     11 C         140.8155  139.6891  165.1830 C.ar    1  UNL1        0.0901
     12 C         144.5320  142.4433  170.1800 C.3     1  UNL1        0.0237
     13 C         143.0932  142.7799  169.9221 C.3     1  UNL1        0.0985
     14 N         142.3264  143.9087  170.5448 N.am    1  UNL1       -0.3004
     15 C         140.9279  143.8733  170.0037 C.2     1  UNL1        0.2438
     16 O         139.8212  144.8219  170.3576 O.2     1  UNL1       -0.2704
     17 C         140.8303  142.7225  169.0464 C.2     1  UNL1        0.0563
     18 C         139.9056  141.9894  168.1204 C.2     1  UNL1        0.0209
     19 C         140.6724  140.8606  167.4976 C.2     1  UNL1        0.0777
     20 N         142.0709  140.8961  168.0388 N.2     1  UNL1       -0.2660
     21 C         142.1686  142.0468  168.9960 C.3     1  UNL1        0.1476
     22 H         142.6792  144.5587  171.1947 H       1  UNL1        0.1498
     23 C         142.8569  139.1460  161.2097 C.3     1  UNL1        0.0738
     24 C         143.8613  138.0933  161.5746 C.3     1  UNL1        0.0228
     25 C         143.1886  139.3305  159.7586 C.3     1  UNL1        0.0228
     26 C         142.0889  140.1358  160.3848 C.3     1  UNL1        0.0228
     27 N         143.9317  141.1268  163.1899 N.pl3   1  UNL1       -0.3074
     28 H         144.7229  140.6882  162.8015 H       1  UNL1        0.1495
     29 C         143.9441  142.6046  163.4474 C.3     1  UNL1        0.0570
     30 C         144.8697  142.6556  164.6267 C.3     1  UNL1        0.0196
     31 C         143.6351  144.0645  163.2953 C.3     1  UNL1        0.0196
     32 C         143.0229  143.0665  162.3575 C.3     1  UNL1        0.0196
@<TRIPOS>BOND
     1    13    12    1
     2    13    14    1
     3    14    15   am
     4    15    16    2
     5    15    17    1
     6    17    18    2
     7    18    19    1
     8    19     1    1
     9     1     2   ar
    10     2     3   ar
    11     3     4   ar
    12     4     5   ar
    13     5     6   ar
    14     6     7    2
    15     6     8   ar
    16     8    23    1
    17    23    24    1
    18    23    25    1
    19    25    26    1
    20     8     9   ar
    21     9    27    1
    22    27    29    1
    23    29    30    1
    24    29    31    1
    25    31    32    1
    26     9    10   ar
    27    10    11   ar
    28    19    20    2
    29    20    21    1
    30    21    13    1
    31    21    17    1
    32    11     1   ar
    33    11     5   ar
    34    26    23    1
    35    32    29    1
    36    14    22    1
    37    27    28    1
@<TRIPOS>MOLECULE
*****
 32 37 0 0 0
SMALL
GASTEIGER

@<TRIPOS>ATOM
      1 C         142.7795  142.4525  165.8500 C.ar    1  UNL1        0.0351
      2 C         143.9863  143.3123  165.6166 C.ar    1  UNL1        0.0030
      3 C         144.2345  143.9043  164.2610 C.ar    1  UNL1        0.0003
      4 C         143.2759  143.6366  163.1387 C.ar    1  UNL1        0.0063
      5 C         142.0692  142.7768  163.3721 C.ar    1  UNL1        0.0740
      6 C         141.1107  142.5091  162.2498 C.ar    1  UNL1        0.2641
      7 O         141.3589  143.1012  160.8941 O.2     1  UNL1       -0.2669
      8 N         139.9039  141.6493  162.4831 N.ar    1  UNL1       -0.2725
      9 C         139.6557  141.0572  163.8388 C.ar    1  UNL1        0.1999
     10 N         140.6142  141.3249  164.9611 N.ar    1  UNL1       -0.2150
     11 C         141.8210  142.1848  164.7277 C.ar    1  UNL1        0.0901
     12 C         143.0612  137.9857  170.2557 C.3     1  UNL1        0.0237
     13 C         142.4761  139.3668  170.2390 C.3     1  UNL1        0.0985
     14 N         141.7673  140.0380  171.3779 N.am    1  UNL1       -0.3004
     15 C         141.3503  141.4052  170.9232 C.2     1  UNL1        0.2438
     16 O         140.6119  142.4204  171.7442 O.2     1  UNL1       -0.2704
     17 C         141.8014  141.5791  169.5032 C.2     1  UNL1        0.0563
     18 C         141.8225  142.5315  168.3446 C.2     1  UNL1        0.0209
     19 C         142.5313  141.8604  167.2057 C.2     1  UNL1        0.0777
     20 N         142.9483  140.4931  167.6604 N.2     1  UNL1       -0.2660
     21 C         142.4972  140.3192  169.0804 C.3     1  UNL1        0.1476
     22 H         141.6044  139.6493  172.2677 H       1  UNL1        0.1498
     23 C         138.9454  141.3816  161.3608 C.3     1  UNL1        0.0738
     24 C         137.9918  142.5231  161.5548 C.3     1  UNL1        0.0228
     25 C         138.3180  140.7175  160.1712 C.3     1  UNL1        0.0228
     26 C         139.5660  140.1471  160.7770 C.3     1  UNL1        0.0228
     27 N         138.4489  140.1974  164.0722 N.pl3   1  UNL1       -0.3074
     28 H         137.5683  140.4841  163.7382 H       1  UNL1        0.1495
     29 C         138.5839  138.9009  164.8145 C.3     1  UNL1        0.0570
     30 C         138.0191  139.3025  166.1448 C.3     1  UNL1        0.0196
     31 C         138.9150  137.4650  165.0947 C.3     1  UNL1        0.0196
     32 C         139.1955  138.0492  163.7419 C.3     1  UNL1        0.0196
@<TRIPOS>BOND
     1    13    12    1
     2    13    14    1
     3    14    15   am
     4    15    16    2
     5    15    17    1
     6    17    18    2
     7    18    19    1
     8    19     1    1
     9     1     2   ar
    10     2     3   ar
    11     3     4   ar
    12     4     5   ar
    13     5     6   ar
    14     6     7    2
    15     6     8   ar
    16     8    23    1
    17    23    24    1
    18    23    25    1
    19    25    26    1
    20     8     9   ar
    21     9    27    1
    22    27    29    1
    23    29    30    1
    24    29    31    1
    25    31    32    1
    26     9    10   ar
    27    10    11   ar
    28    19    20    2
    29    20    21    1
    30    21    13    1
    31    21    17    1
    32    11     1   ar
    33    11     5   ar
    34    26    23    1
    35    32    29    1
    36    14    22    1
    37    27    28    1
@<TRIPOS>MOLECULE
*****
 32 37 0 0 0
SMALL
GASTEIGER

@<TRIPOS>ATOM
      1 C         142.9511  140.8669  165.2750 C.ar    1  UNL1        0.0351
      2 C         144.0126  139.8168  165.1324 C.ar    1  UNL1        0.0030
      3 C         144.5150  139.4384  163.7707 C.ar    1  UNL1        0.0003
      4 C         143.9559  140.1100  162.5516 C.ar    1  UNL1        0.0063
      5 C         142.8944  141.1601  162.6942 C.ar    1  UNL1        0.0740
      6 C         142.3352  141.8317  161.4750 C.ar    1  UNL1        0.2641
      7 O         142.8377  141.4533  160.1133 O.2     1  UNL1       -0.2669
      8 N         141.2737  142.8818  161.6176 N.ar    1  UNL1       -0.2725
      9 C         140.7712  143.2604  162.9794 C.ar    1  UNL1        0.1999
     10 N         141.3304  142.5887  164.1985 N.ar    1  UNL1       -0.2150
     11 C         142.3920  141.5386  164.0559 C.ar    1  UNL1        0.0901
     12 C         138.9467  140.7345  170.1113 C.3     1  UNL1        0.0237
     13 C         140.2343  141.4660  169.8725 C.3     1  UNL1        0.0985
     14 N         140.9021  142.4102  170.8277 N.am    1  UNL1       -0.3004
     15 C         142.1607  142.9095  170.1821 C.2     1  UNL1        0.2438
     16 O         143.1377  143.8750  170.7849 O.2     1  UNL1       -0.2704
     17 C         142.2707  142.2739  168.8279 C.2     1  UNL1        0.0563
     18 C         143.1165  142.1896  167.5920 C.2     1  UNL1        0.0209
     19 C         142.4486  141.2454  166.6368 C.2     1  UNL1        0.0777
     20 N         141.1901  140.7461  167.2824 N.2     1  UNL1       -0.2660
     21 C         141.0801  141.3818  168.6366 C.3     1  UNL1        0.1476
     22 H         140.5724  142.6587  171.7214 H       1  UNL1        0.1498
     23 C         140.7146  143.5535  160.3985 C.3     1  UNL1        0.0738
     24 C         141.6089  144.7558  160.3302 C.3     1  UNL1        0.0228
     25 C         139.8449  143.8076  159.2031 C.3     1  UNL1        0.0228
     26 C         139.6261  142.5844  160.0433 C.3     1  UNL1        0.0228
     27 N         139.7097  144.3105  163.1220 N.pl3   1  UNL1       -0.3074
     28 H         139.8041  145.1724  162.6557 H       1  UNL1        0.1495
     29 C         138.5042  144.0474  163.9750 C.3     1  UNL1        0.0570
     30 C         137.7535  143.1052  163.0814 C.3     1  UNL1        0.0196
     31 C         137.5595  144.1114  165.1384 C.3     1  UNL1        0.0196
     32 C         138.8364  144.8982  165.1648 C.3     1  UNL1        0.0196
@<TRIPOS>BOND
     1    13    12    1
     2    13    14    1
     3    14    15   am
     4    15    16    2
     5    15    17    1
     6    17    18    2
     7    18    19    1
     8    19     1    1
     9     1     2   ar
    10     2     3   ar
    11     3     4   ar
    12     4     5   ar
    13     5     6   ar
    14     6     7    2
    15     6     8   ar
    16     8    23    1
    17    23    24    1
    18    23    25    1
    19    25    26    1
    20     8     9   ar
    21     9    27    1
    22    27    29    1
    23    29    30    1
    24    29    31    1
    25    31    32    1
    26     9    10   ar
    27    10    11   ar
    28    19    20    2
    29    20    21    1
    30    21    13    1
    31    21    17    1
    32    11     1   ar
    33    11     5   ar
    34    26    23    1
    35    32    29    1
    36    14    22    1
    37    27    28    1
@<TRIPOS>MOLECULE
*****
 32 37 0 0 0
SMALL
GASTEIGER

@<TRIPOS>ATOM
      1 C         142.3051  140.3637  165.7897 C.ar    1  UNL1        0.0351
      2 C         143.3433  139.2883  165.9141 C.ar    1  UNL1        0.0030
      3 C         144.1148  138.8473  164.7057 C.ar    1  UNL1        0.0003
      4 C         143.8482  139.4818  163.3729 C.ar    1  UNL1        0.0063
      5 C         142.8100  140.5572  163.2485 C.ar    1  UNL1        0.0740
      6 C         142.5433  141.1917  161.9157 C.ar    1  UNL1        0.2641
      7 O         143.3148  140.7507  160.7073 O.2     1  UNL1       -0.2669
      8 N         141.5051  142.2671  161.7913 N.ar    1  UNL1       -0.2725
      9 C         140.7335  142.7081  162.9997 C.ar    1  UNL1        0.1999
     10 N         141.0001  142.0737  164.3325 N.ar    1  UNL1       -0.2150
     11 C         142.0384  140.9982  164.4569 C.ar    1  UNL1        0.0901
     12 C         140.4841  144.4289  170.2169 C.3     1  UNL1        0.0237
     13 C         140.1226  143.0013  169.9318 C.3     1  UNL1        0.0985
     14 N         139.1588  142.1621  170.7171 N.am    1  UNL1       -0.3004
     15 C         139.1021  140.8044  170.0819 C.2     1  UNL1        0.2438
     16 O         138.2638  139.6494  170.5436 O.2     1  UNL1       -0.2704
     17 C         140.0308  140.8045  168.9040 C.2     1  UNL1        0.0563
     18 C         140.5697  139.9655  167.7834 C.2     1  UNL1        0.0209
     19 C         141.5335  140.8047  166.9981 C.2     1  UNL1        0.0777
     20 N         141.5902  142.1624  167.6333 N.2     1  UNL1       -0.2660
     21 C         140.6615  142.1623  168.8112 C.3     1  UNL1        0.1476
     22 H         138.6524  142.4516  171.5102 H       1  UNL1        0.1498
     23 C         141.2384  142.9016  160.4585 C.3     1  UNL1        0.0738
     24 C         140.1609  141.9916  159.9477 C.3     1  UNL1        0.0228
     25 C         141.3459  143.8521  159.3032 C.3     1  UNL1        0.0228
     26 C         142.2232  144.0320  160.5064 C.3     1  UNL1        0.0228
     27 N         139.6952  143.7836  162.8753 N.pl3   1  UNL1       -0.3074
     28 H         139.7942  144.4868  162.1935 H       1  UNL1        0.1495
     29 C         138.5061  143.7875  163.7897 C.3     1  UNL1        0.0570
     30 C         137.6546  142.7540  163.1140 C.3     1  UNL1        0.0196
     31 C         137.6128  144.1504  164.9388 C.3     1  UNL1        0.0196
     32 C         138.9448  144.8224  164.7830 C.3     1  UNL1        0.0196
@<TRIPOS>BOND
     1    13    12    1
     2    13    14    1
     3    14    15   am
     4    15    16    2
     5    15    17    1
     6    17    18    2
     7    18    19    1
     8    19     1    1
     9     1     2   ar
    10     2     3   ar
    11     3     4   ar
    12     4     5   ar
    13     5     6   ar
    14     6     7    2
    15     6     8   ar
    16     8    23    1
    17    23    24    1
    18    23    25    1
    19    25    26    1
    20     8     9   ar
    21     9    27    1
    22    27    29    1
    23    29    30    1
    24    29    31    1
    25    31    32    1
    26     9    10   ar
    27    10    11   ar
    28    19    20    2
    29    20    21    1
    30    21    13    1
    31    21    17    1
    32    11     1   ar
    33    11     5   ar
    34    26    23    1
    35    32    29    1
    36    14    22    1
    37    27    28    1
@<TRIPOS>MOLECULE
*****
 32 37 0 0 0
SMALL
GASTEIGER

@<TRIPOS>ATOM
      1 C         142.8481  142.2319  165.4331 C.ar    1  UNL1        0.0351
      2 C         144.0428  143.1197  165.2477 C.ar    1  UNL1        0.0030
      3 C         144.3651  143.6694  163.8898 C.ar    1  UNL1        0.0003
      4 C         143.4928  143.3313  162.7173 C.ar    1  UNL1        0.0063
      5 C         142.2981  142.4434  162.9027 C.ar    1  UNL1        0.0740
      6 C         141.4258  142.1053  161.7303 C.ar    1  UNL1        0.2641
      7 O         141.7481  142.6550  160.3724 O.2     1  UNL1       -0.2669
      8 N         140.2311  141.2174  161.9157 N.ar    1  UNL1       -0.2725
      9 C         139.9087  140.6677  163.2736 C.ar    1  UNL1        0.1999
     10 N         140.7810  141.0058  164.4461 N.ar    1  UNL1       -0.2150
     11 C         141.9758  141.8937  164.2606 C.ar    1  UNL1        0.0901
     12 C         140.1947  142.2987  171.1249 C.3     1  UNL1        0.0237
     13 C         141.0663  141.3040  170.4172 C.3     1  UNL1        0.0985
     14 N         141.5335  139.9903  170.9702 N.am    1  UNL1       -0.3004
     15 C         142.3796  139.3228  169.9269 C.2     1  UNL1        0.2438
     16 O         143.0520  137.9884  170.0583 O.2     1  UNL1       -0.2704
     17 C         142.4355  140.2240  168.7291 C.2     1  UNL1        0.0563
     18 C         142.9929  140.3684  167.3440 C.2     1  UNL1        0.0209
     19 C         142.5257  141.6821  166.7910 C.2     1  UNL1        0.0777
     20 N         141.6795  142.3496  167.8343 N.2     1  UNL1       -0.2660
     21 C         141.6237  141.4485  169.0321 C.3     1  UNL1        0.1476
     22 H         141.3219  139.6295  171.8614 H       1  UNL1        0.1498
     23 C         139.3588  140.8793  160.7432 C.3     1  UNL1        0.0738
     24 C         140.0682  139.6597  160.2338 C.3     1  UNL1        0.0228
     25 C         138.2401  140.9646  159.7477 C.3     1  UNL1        0.0228
     26 C         138.3463  141.9813  160.8453 C.3     1  UNL1        0.0228
     27 N         138.7140  139.7798  163.4590 N.pl3   1  UNL1       -0.3074
     28 H         137.8466  140.0339  163.0688 H       1  UNL1        0.1495
     29 C         138.8409  138.5048  164.2390 C.3     1  UNL1        0.0570
     30 C         139.4501  137.6191  163.1928 C.3     1  UNL1        0.0196
     31 C         138.7563  137.5374  165.3822 C.3     1  UNL1        0.0196
     32 C         138.2758  138.9478  165.5559 C.3     1  UNL1        0.0196
@<TRIPOS>BOND
     1    13    12    1
     2    13    14    1
     3    14    15   am
     4    15    16    2
     5    15    17    1
     6    17    18    2
     7    18    19    1
     8    19     1    1
     9     1     2   ar
    10     2     3   ar
    11     3     4   ar
    12     4     5   ar
    13     5     6   ar
    14     6     7    2
    15     6     8   ar
    16     8    23    1
    17    23    24    1
    18    23    25    1
    19    25    26    1
    20     8     9   ar
    21     9    27    1
    22    27    29    1
    23    29    30    1
    24    29    31    1
    25    31    32    1
    26     9    10   ar
    27    10    11   ar
    28    19    20    2
    29    20    21    1
    30    21    13    1
    31    21    17    1
    32    11     1   ar
    33    11     5   ar
    34    26    23    1
    35    32    29    1
    36    14    22    1
    37    27    28    1
@<TRIPOS>MOLECULE
*****
 32 37 0 0 0
SMALL
GASTEIGER

@<TRIPOS>ATOM
      1 C         140.1964  142.9676  165.9749 C.ar    1  UNL1        0.0351
      2 C         139.3567  144.2102  165.9478 C.ar    1  UNL1        0.0030
      3 C         139.0048  144.8491  164.6371 C.ar    1  UNL1        0.0003
      4 C         139.4926  144.2454  163.3535 C.ar    1  UNL1        0.0063
      5 C         140.3323  143.0028  163.3806 C.ar    1  UNL1        0.0740
      6 C         140.8201  142.3990  162.0970 C.ar    1  UNL1        0.2641
      7 O         140.4681  143.0379  160.7864 O.2     1  UNL1       -0.2669
      8 N         141.6597  141.1564  162.1241 N.ar    1  UNL1       -0.2725
      9 C         142.0117  140.5175  163.4349 C.ar    1  UNL1        0.1999
     10 N         141.5239  141.1212  164.7185 N.ar    1  UNL1       -0.2150
     11 C         140.6842  142.3639  164.6913 C.ar    1  UNL1        0.0901
     12 C         142.7904  138.6042  169.6727 C.3     1  UNL1        0.0237
     13 C         142.0024  139.8478  169.9601 C.3     1  UNL1        0.0985
     14 N         141.6316  140.3621  171.3194 N.am    1  UNL1       -0.3004
     15 C         140.8470  141.6276  171.1380 C.2     1  UNL1        0.2438
     16 O         140.2766  142.4764  172.2354 O.2     1  UNL1       -0.2704
     17 C         140.7329  141.8954  169.6665 C.2     1  UNL1        0.0563
     18 C         140.1775  142.8430  168.6450 C.2     1  UNL1        0.0209
     19 C         140.5484  142.3286  167.2856 C.2     1  UNL1        0.0777
     20 N         141.3330  141.0631  167.4670 N.2     1  UNL1       -0.2660
     21 C         141.4470  140.7953  168.9385 C.3     1  UNL1        0.1476
     22 H         141.8626  139.9427  172.1797 H       1  UNL1        0.1498
     23 C         142.1475  140.5527  160.8406 C.3     1  UNL1        0.0738
     24 C         143.4631  141.2602  160.7033 C.3     1  UNL1        0.0228
     25 C         142.1785  139.7033  159.6047 C.3     1  UNL1        0.0228
     26 C         141.0014  139.6355  160.5320 C.3     1  UNL1        0.0228
     27 N         142.8514  139.2749  163.4620 N.pl3   1  UNL1       -0.3074
     28 H         142.9017  138.6973  162.6663 H       1  UNL1        0.1495
     29 C         143.6145  138.9122  164.7015 C.3     1  UNL1        0.0570
     30 C         144.9259  139.5766  164.4036 C.3     1  UNL1        0.0196
     31 C         143.9221  138.3187  166.0443 C.3     1  UNL1        0.0196
     32 C         142.5680  138.1218  165.4296 C.3     1  UNL1        0.0196
@<TRIPOS>BOND
     1    13    12    1
     2    13    14    1
     3    14    15   am
     4    15    16    2
     5    15    17    1
     6    17    18    2
     7    18    19    1
     8    19     1    1
     9     1     2   ar
    10     2     3   ar
    11     3     4   ar
    12     4     5   ar
    13     5     6   ar
    14     6     7    2
    15     6     8   ar
    16     8    23    1
    17    23    24    1
    18    23    25    1
    19    25    26    1
    20     8     9   ar
    21     9    27    1
    22    27    29    1
    23    29    30    1
    24    29    31    1
    25    31    32    1
    26     9    10   ar
    27    10    11   ar
    28    19    20    2
    29    20    21    1
    30    21    13    1
    31    21    17    1
    32    11     1   ar
    33    11     5   ar
    34    26    23    1
    35    32    29    1
    36    14    22    1
    37    27    28    1
@<TRIPOS>MOLECULE
*****
 32 37 0 0 0
SMALL
GASTEIGER

@<TRIPOS>ATOM
      1 C         140.3821  139.4531  165.5788 C.ar    1  UNL1        0.0351
      2 C         139.2678  138.4493  165.6032 C.ar    1  UNL1        0.0030
      3 C         138.7866  137.8317  164.3238 C.ar    1  UNL1        0.0003
      4 C         139.4197  138.2180  163.0199 C.ar    1  UNL1        0.0063
      5 C         140.5340  139.2218  162.9955 C.ar    1  UNL1        0.0740
      6 C         141.1671  139.6081  161.6917 C.ar    1  UNL1        0.2641
      7 O         140.6859  138.9905  160.4122 O.2     1  UNL1       -0.2669
      8 N         142.2814  140.6119  161.6673 N.ar    1  UNL1       -0.2725
      9 C         142.7626  141.2295  162.9468 C.ar    1  UNL1        0.1999
     10 N         142.1295  140.8432  164.2506 N.ar    1  UNL1       -0.2150
     11 C         141.0152  139.8394  164.2750 C.ar    1  UNL1        0.0901
     12 C         140.7048  143.9195  169.9821 C.3     1  UNL1        0.0237
     13 C         141.3695  142.5831  169.8338 C.3     1  UNL1        0.0985
     14 N         142.3443  141.9716  170.7960 N.am    1  UNL1       -0.3004
     15 C         142.7535  140.6341  170.2541 C.2     1  UNL1        0.2438
     16 O         143.7156  139.6794  170.8965 O.2     1  UNL1       -0.2704
     17 C         142.0315  140.4189  168.9570 C.2     1  UNL1        0.0563
     18 C         141.8381  139.4593  167.8205 C.2     1  UNL1        0.0209
     19 C         140.8633  140.0707  166.8583 C.2     1  UNL1        0.0777
     20 N         140.4542  141.4083  167.4002 N.2     1  UNL1       -0.2660
     21 C         141.1762  141.6235  168.6972 C.3     1  UNL1        0.1476
     22 H         142.6602  142.3770  171.6357 H       1  UNL1        0.1498
     23 C         142.9145  140.9981  160.3634 C.3     1  UNL1        0.0738
     24 C         142.0380  142.1536  159.9805 C.3     1  UNL1        0.0228
     25 C         143.8519  140.9831  159.1926 C.3     1  UNL1        0.0228
     26 C         144.0108  139.9768  160.2935 C.3     1  UNL1        0.0228
     27 N         143.8769  142.2333  162.9224 N.pl3   1  UNL1       -0.3074
     28 H         144.7021  142.0407  162.4212 H       1  UNL1        0.1495
     29 C         143.7339  143.5307  163.6616 C.3     1  UNL1        0.0570
     30 C         144.5249  143.2154  164.8964 C.3     1  UNL1        0.0196
     31 C         143.3163  144.9376  163.9719 C.3     1  UNL1        0.0196
     32 C         142.8933  144.2965  162.6834 C.3     1  UNL1        0.0196
@<TRIPOS>BOND
     1    13    12    1
     2    13    14    1
     3    14    15   am
     4    15    16    2
     5    15    17    1
     6    17    18    2
     7    18    19    1
     8    19     1    1
     9     1     2   ar
    10     2     3   ar
    11     3     4   ar
    12     4     5   ar
    13     5     6   ar
    14     6     7    2
    15     6     8   ar
    16     8    23    1
    17    23    24    1
    18    23    25    1
    19    25    26    1
    20     8     9   ar
    21     9    27    1
    22    27    29    1
    23    29    30    1
    24    29    31    1
    25    31    32    1
    26     9    10   ar
    27    10    11   ar
    28    19    20    2
    29    20    21    1
    30    21    13    1
    31    21    17    1
    32    11     1   ar
    33    11     5   ar
    34    26    23    1
    35    32    29    1
    36    14    22    1
    37    27    28    1
@<TRIPOS>MOLECULE
*****
 32 37 0 0 0
SMALL
GASTEIGER

@<TRIPOS>ATOM
      1 C         142.9182  142.1462  165.5585 C.ar    1  UNL1        0.0351
      2 C         143.6574  143.4476  165.6568 C.ar    1  UNL1        0.0030
      3 C         144.1735  144.1126  164.4153 C.ar    1  UNL1        0.0003
      4 C         143.9503  143.4761  163.0755 C.ar    1  UNL1        0.0063
      5 C         143.2111  142.1747  162.9772 C.ar    1  UNL1        0.0740
      6 C         142.9879  141.5382  161.6374 C.ar    1  UNL1        0.2641
      7 O         143.5040  142.2031  160.3958 O.2     1  UNL1       -0.2669
      8 N         142.2486  140.2367  161.5391 N.ar    1  UNL1       -0.2725
      9 C         141.7325  139.5717  162.7806 C.ar    1  UNL1        0.1999
     10 N         141.9557  140.2082  164.1205 N.ar    1  UNL1       -0.2150
     11 C         142.6950  141.5097  164.2187 C.ar    1  UNL1        0.0901
     12 C         143.0474  138.0065  170.2795 C.3     1  UNL1        0.0237
     13 C         142.0776  139.0837  169.8934 C.3     1  UNL1        0.0985
     14 N         140.8137  139.4344  170.6211 N.am    1  UNL1       -0.3004
     15 C         140.1564  140.5669  169.8892 C.2     1  UNL1        0.2438
     16 O         138.8677  141.2331  170.2704 O.2     1  UNL1       -0.2704
     17 C         141.0142  140.9161  168.7093 C.2     1  UNL1        0.0563
     18 C         141.1381  141.8318  167.5277 C.2     1  UNL1        0.0209
     19 C         142.4020  141.4811  166.8001 C.2     1  UNL1        0.0777
     20 N         143.0592  140.3487  167.5319 N.2     1  UNL1       -0.2660
     21 C         142.2015  139.9994  168.7119 C.3     1  UNL1        0.1476
     22 H         140.4749  138.9979  171.4359 H       1  UNL1        0.1498
     23 C         142.0255  139.6003  160.1993 C.3     1  UNL1        0.0738
     24 C         140.7001  140.2046  159.8413 C.3     1  UNL1        0.0228
     25 C         142.2626  138.7539  158.9838 C.3     1  UNL1        0.0228
     26 C         143.2733  138.7749  160.0919 C.3     1  UNL1        0.0228
     27 N         140.9932  138.2703  162.6824 N.pl3   1  UNL1       -0.3074
     28 H         141.0985  137.7034  161.8843 H       1  UNL1        0.1495
     29 C         140.0936  137.8324  163.8000 C.3     1  UNL1        0.0570
     30 C         141.0207  136.9098  164.5343 C.3     1  UNL1        0.0196
     31 C         138.8721  137.7150  164.6626 C.3     1  UNL1        0.0196
     32 C         138.8542  138.6030  163.4537 C.3     1  UNL1        0.0196
@<TRIPOS>BOND
     1    13    12    1
     2    13    14    1
     3    14    15   am
     4    15    16    2
     5    15    17    1
     6    17    18    2
     7    18    19    1
     8    19     1    1
     9     1     2   ar
    10     2     3   ar
    11     3     4   ar
    12     4     5   ar
    13     5     6   ar
    14     6     7    2
    15     6     8   ar
    16     8    23    1
    17    23    24    1
    18    23    25    1
    19    25    26    1
    20     8     9   ar
    21     9    27    1
    22    27    29    1
    23    29    30    1
    24    29    31    1
    25    31    32    1
    26     9    10   ar
    27    10    11   ar
    28    19    20    2
    29    20    21    1
    30    21    13    1
    31    21    17    1
    32    11     1   ar
    33    11     5   ar
    34    26    23    1
    35    32    29    1
    36    14    22    1
    37    27    28    1
