@<TRIPOS>MOLECULE
*****
 34 37 0 0 0
SMALL
GASTEIGER

@<TRIPOS>ATOM
      1 C         140.1646  138.5914  163.4875 C.ar    1  UNL1        0.0193
      2 C         138.9006  137.8585  163.8264 C.ar    1  UNL1        0.1002
      3 N         138.3130  137.9729  165.2018 N.ar    1  UNL1       -0.2296
      4 C         138.9895  138.8204  166.2382 C.ar    1  UNL1        0.1254
      5 N         138.4019  138.9349  167.6136 N.pl3   1  UNL1       -0.3426
      6 C         140.2535  139.5533  165.8993 C.ar    1  UNL1        0.0327
      7 C         140.8411  139.4389  164.5239 C.ar    1  UNL1        0.0044
      8 H         137.5722  138.4538  167.8360 H       1  UNL1        0.1437
      9 H         138.8458  139.4911  168.2939 H       1  UNL1        0.1437
     10 C         141.9274  138.2481  159.3613 C.ar    1  UNL1        0.0536
     11 C         140.5628  138.8425  159.5469 C.ar    1  UNL1        0.0045
     12 C         139.9752  138.9569  160.9222 C.ar    1  UNL1        0.0002
     13 C         140.7523  138.4770  162.1121 C.ar    1  UNL1        0.0015
     14 C         142.1169  137.8825  161.9266 C.ar    1  UNL1        0.0002
     15 C         142.7045  137.7681  160.5512 C.ar    1  UNL1        0.0045
     16 C         146.2025  142.3990  155.9345 C.3     1  UNL1        0.0897
     17 N         145.2806  141.3327  156.4474 N.3     1  UNL1       -0.2686
     18 C         144.9463  140.1519  155.5849 C.3     1  UNL1        0.0939
     19 C         144.0244  139.0855  156.0978 C.3     1  UNL1        0.1110
     20 N         143.4369  139.2000  157.4731 N.am    1  UNL1       -0.2732
     21 C         142.5150  138.1336  157.9860 C.2     1  UNL1        0.2491
     22 O         142.1807  136.9528  157.1235 O.2     1  UNL1       -0.2699
     23 C         143.7712  140.3808  158.3356 C.3     1  UNL1        0.1110
     24 C         144.6931  141.4471  157.8227 C.3     1  UNL1        0.0939
     25 C         140.9300  140.4008  166.9357 C.ar    1  UNL1        0.0218
     26 C         140.4631  141.8056  167.1773 C.ar    1  UNL1        0.0031
     27 C         141.1396  142.6531  168.2137 C.ar    1  UNL1        0.0231
     28 C         142.2830  142.0957  169.0086 C.ar    1  UNL1        0.1526
     29 N         142.7499  140.6909  168.7670 N.ar    1  UNL1       -0.2399
     30 C         142.0734  139.8434  167.7306 C.ar    1  UNL1        0.0988
     31 C         142.9595  142.9431  170.0450 C.3     1  UNL1        0.4348
     32 F         143.6360  143.7906  171.0815 F       1  UNL1       -0.1644
     33 F         141.7419  143.8153  170.1266 F       1  UNL1       -0.1644
     34 F         144.1771  142.0709  169.9635 F       1  UNL1       -0.1644
@<TRIPOS>BOND
     1    16    17    1
     2    17    18    1
     3    18    19    1
     4    19    20    1
     5    20    21   am
     6    21    22    2
     7    21    10    1
     8    10    11   ar
     9    11    12   ar
    10    12    13   ar
    11    13     1    1
    12     1     2   ar
    13     2     3   ar
    14     3     4   ar
    15     4     5    1
    16     4     6   ar
    17     6    25    1
    18    25    26   ar
    19    26    27   ar
    20    27    28   ar
    21    28    31    1
    22    31    32    1
    23    31    33    1
    24    31    34    1
    25    28    29   ar
    26    29    30   ar
    27     6     7   ar
    28    13    14   ar
    29    14    15   ar
    30    20    23    1
    31    23    24    1
    32    24    17    1
    33    15    10   ar
    34     7     1   ar
    35    30    25   ar
    36     5     8    1
    37     5     9    1
@<TRIPOS>MOLECULE
*****
 34 37 0 0 0
SMALL
GASTEIGER

@<TRIPOS>ATOM
      1 C         143.2647  139.1281  160.4625 C.ar    1  UNL1        0.0193
      2 C         143.6262  140.4363  159.8240 C.ar    1  UNL1        0.1002
      3 N         143.5911  140.5773  158.3311 N.ar    1  UNL1       -0.2296
      4 C         143.1946  139.4099  157.4767 C.ar    1  UNL1        0.1254
      5 N         143.1595  139.5509  155.9837 N.pl3   1  UNL1       -0.3426
      6 C         142.8331  138.1016  158.1152 C.ar    1  UNL1        0.0327
      7 C         142.8681  137.9607  159.6081 C.ar    1  UNL1        0.0044
      8 H         143.3968  140.4096  155.5646 H       1  UNL1        0.1437
      9 H         142.8993  138.7847  155.4229 H       1  UNL1        0.1437
     10 C         143.3698  138.7051  164.9414 C.ar    1  UNL1        0.0536
     11 C         142.3241  137.9833  164.1442 C.ar    1  UNL1        0.0045
     12 C         142.2891  138.1243  162.6513 C.ar    1  UNL1        0.0002
     13 C         143.2997  138.9871  161.9555 C.ar    1  UNL1        0.0015
     14 C         144.3454  139.7089  162.7526 C.ar    1  UNL1        0.0002
     15 C         144.3805  139.5679  164.2457 C.ar    1  UNL1        0.0045
     16 C         139.8761  142.0048  169.8563 C.3     1  UNL1        0.0897
     17 N         140.7582  141.1447  169.0008 N.3     1  UNL1       -0.2686
     18 C         141.6754  140.1435  169.6382 C.3     1  UNL1        0.0939
     19 C         142.5576  139.2833  168.7827 C.3     1  UNL1        0.1110
     20 N         142.5226  139.4243  167.2898 N.am    1  UNL1       -0.2732
     21 C         143.4048  138.5642  166.4343 C.2     1  UNL1        0.2491
     22 O         144.3220  137.5630  167.0718 O.2     1  UNL1       -0.2699
     23 C         141.6054  140.4255  166.6524 C.3     1  UNL1        0.1110
     24 C         140.7232  141.2857  167.5079 C.3     1  UNL1        0.0939
     25 C         142.4365  136.9343  157.2607 C.ar    1  UNL1        0.0218
     26 C         143.2774  135.6922  157.2508 C.ar    1  UNL1        0.0031
     27 C         142.8808  134.5249  156.3964 C.ar    1  UNL1        0.0231
     28 C         141.6434  134.5996  155.5519 C.ar    1  UNL1        0.1526
     29 N         140.8026  135.8417  155.5618 N.ar    1  UNL1       -0.2399
     30 C         141.1991  137.0090  156.4162 C.ar    1  UNL1        0.0988
     31 C         141.2469  133.4322  154.6975 C.3     1  UNL1        0.4348
     32 F         140.8503  132.2649  153.8430 F       1  UNL1       -0.1644
     33 F         140.9029  134.3689  153.5774 F       1  UNL1       -0.1644
     34 F         141.5908  132.4956  155.8175 F       1  UNL1       -0.1644
@<TRIPOS>BOND
     1    16    17    1
     2    17    18    1
     3    18    19    1
     4    19    20    1
     5    20    21   am
     6    21    22    2
     7    21    10    1
     8    10    11   ar
     9    11    12   ar
    10    12    13   ar
    11    13     1    1
    12     1     2   ar
    13     2     3   ar
    14     3     4   ar
    15     4     5    1
    16     4     6   ar
    17     6    25    1
    18    25    26   ar
    19    26    27   ar
    20    27    28   ar
    21    28    31    1
    22    31    32    1
    23    31    33    1
    24    31    34    1
    25    28    29   ar
    26    29    30   ar
    27     6     7   ar
    28    13    14   ar
    29    14    15   ar
    30    20    23    1
    31    23    24    1
    32    24    17    1
    33    15    10   ar
    34     7     1   ar
    35    30    25   ar
    36     5     8    1
    37     5     9    1
@<TRIPOS>MOLECULE
*****
 34 37 0 0 0
SMALL
GASTEIGER

@<TRIPOS>ATOM
      1 C         140.4163  138.8441  163.0565 C.ar    1  UNL1        0.0193
      2 C         139.1792  138.0333  163.3052 C.ar    1  UNL1        0.1002
      3 N         138.5458  138.0294  164.6649 N.ar    1  UNL1       -0.2296
      4 C         139.1496  138.8363  165.7759 C.ar    1  UNL1        0.1254
      5 N         138.5162  138.8324  167.1356 N.pl3   1  UNL1       -0.3426
      6 C         140.3868  139.6472  165.5271 C.ar    1  UNL1        0.0327
      7 C         141.0201  139.6511  164.1674 C.ar    1  UNL1        0.0044
      8 H         137.7042  138.3002  167.2989 H       1  UNL1        0.1437
      9 H         138.9125  139.3620  167.8648 H       1  UNL1        0.1437
     10 C         142.3165  138.8560  158.9773 C.ar    1  UNL1        0.0536
     11 C         141.2070  139.8156  159.2907 C.ar    1  UNL1        0.0045
     12 C         140.5736  139.8116  160.6504 C.ar    1  UNL1        0.0002
     13 C         141.0497  138.8481  161.6967 C.ar    1  UNL1        0.0015
     14 C         142.1592  137.8885  161.3834 C.ar    1  UNL1        0.0002
     15 C         142.7926  137.8924  160.0237 C.ar    1  UNL1        0.0045
     16 C         140.4790  135.7110  153.1479 C.3     1  UNL1        0.0897
     17 N         141.0967  136.4982  154.2653 N.3     1  UNL1       -0.2686
     18 C         142.3478  137.2894  154.0230 C.3     1  UNL1        0.0939
     19 C         142.9655  138.0767  155.1405 C.3     1  UNL1        0.1110
     20 N         142.3321  138.0727  156.5002 N.am    1  UNL1       -0.2732
     21 C         142.9499  138.8600  157.6176 C.2     1  UNL1        0.2491
     22 O         144.2009  139.6512  157.3753 O.2     1  UNL1       -0.2699
     23 C         141.0811  137.2815  156.7424 C.3     1  UNL1        0.1110
     24 C         140.4633  136.4942  155.6250 C.3     1  UNL1        0.0939
     25 C         140.9906  140.4542  166.6381 C.ar    1  UNL1        0.0218
     26 C         142.0788  139.8661  167.4864 C.ar    1  UNL1        0.0031
     27 C         142.6826  140.6731  168.5974 C.ar    1  UNL1        0.0231
     28 C         142.1981  142.0681  168.8600 C.ar    1  UNL1        0.1526
     29 N         141.1098  142.6562  168.0117 N.ar    1  UNL1       -0.2399
     30 C         140.5060  141.8493  166.9007 C.ar    1  UNL1        0.0988
     31 C         142.8019  142.8751  169.9710 C.3     1  UNL1        0.4348
     32 F         143.4057  143.6821  171.0819 F       1  UNL1       -0.1644
     33 F         144.0338  142.0206  169.9222 F       1  UNL1       -0.1644
     34 F         141.5701  143.7296  170.0197 F       1  UNL1       -0.1644
@<TRIPOS>BOND
     1    16    17    1
     2    17    18    1
     3    18    19    1
     4    19    20    1
     5    20    21   am
     6    21    22    2
     7    21    10    1
     8    10    11   ar
     9    11    12   ar
    10    12    13   ar
    11    13     1    1
    12     1     2   ar
    13     2     3   ar
    14     3     4   ar
    15     4     5    1
    16     4     6   ar
    17     6    25    1
    18    25    26   ar
    19    26    27   ar
    20    27    28   ar
    21    28    31    1
    22    31    32    1
    23    31    33    1
    24    31    34    1
    25    28    29   ar
    26    29    30   ar
    27     6     7   ar
    28    13    14   ar
    29    14    15   ar
    30    20    23    1
    31    23    24    1
    32    24    17    1
    33    15    10   ar
    34     7     1   ar
    35    30    25   ar
    36     5     8    1
    37     5     9    1
@<TRIPOS>MOLECULE
*****
 34 37 0 0 0
SMALL
GASTEIGER

@<TRIPOS>ATOM
      1 C         139.3865  139.8809  161.1515 C.ar    1  UNL1        0.0193
      2 C         138.2206  139.6190  160.2450 C.ar    1  UNL1        0.1002
      3 N         138.3873  139.7276  158.7583 N.ar    1  UNL1       -0.2296
      4 C         139.7201  140.0981  158.1781 C.ar    1  UNL1        0.1254
      5 N         139.8868  140.2066  156.6913 N.pl3   1  UNL1       -0.3426
      6 C         140.8860  140.3600  159.0846 C.ar    1  UNL1        0.0327
      7 C         140.7193  140.2514  160.5714 C.ar    1  UNL1        0.0044
      8 H         139.1215  140.0347  156.0963 H       1  UNL1        0.1437
      9 H         140.7615  140.4498  156.3105 H       1  UNL1        0.1437
     10 C         138.8864  139.5553  165.6118 C.ar    1  UNL1        0.0536
     11 C         139.8239  138.6310  164.8927 C.ar    1  UNL1        0.0045
     12 C         139.9906  138.7396  163.4060 C.ar    1  UNL1        0.0002
     13 C         139.2198  139.7724  162.6383 C.ar    1  UNL1        0.0015
     14 C         138.2824  140.6966  163.3574 C.ar    1  UNL1        0.0002
     15 C         138.1157  140.5880  164.8442 C.ar    1  UNL1        0.0045
     16 C         142.3084  142.5687  170.7557 C.3     1  UNL1        0.0897
     17 N         141.4112  141.7882  169.8414 N.3     1  UNL1       -0.2686
     18 C         140.3474  140.8991  170.4138 C.3     1  UNL1        0.0939
     19 C         139.4502  140.1186  169.4996 C.3     1  UNL1        0.1110
     20 N         139.6169  140.2272  168.0128 N.am    1  UNL1       -0.2732
     21 C         138.7197  139.4467  167.0986 C.2     1  UNL1        0.2491
     22 O         137.6559  138.5576  167.6710 O.2     1  UNL1       -0.2699
     23 C         140.6807  141.1163  167.4404 C.3     1  UNL1        0.1110
     24 C         141.5779  141.8968  168.3547 C.3     1  UNL1        0.0939
     25 C         142.2187  140.7305  158.5045 C.ar    1  UNL1        0.0218
     26 C         142.6157  142.1731  158.3986 C.ar    1  UNL1        0.0031
     27 C         143.9484  142.5436  157.8184 C.ar    1  UNL1        0.0231
     28 C         144.8842  141.4715  157.3441 C.ar    1  UNL1        0.1526
     29 N         144.4872  140.0289  157.4500 N.ar    1  UNL1       -0.2399
     30 C         143.1545  139.6584  158.0302 C.ar    1  UNL1        0.0988
     31 C         146.2169  141.8420  156.7640 C.3     1  UNL1        0.4348
     32 F         147.5496  142.2125  156.1838 F       1  UNL1       -0.1644
     33 F         146.1124  140.7014  155.7954 F       1  UNL1       -0.1644
     34 F         146.3214  142.9826  157.7325 F       1  UNL1       -0.1644
@<TRIPOS>BOND
     1    16    17    1
     2    17    18    1
     3    18    19    1
     4    19    20    1
     5    20    21   am
     6    21    22    2
     7    21    10    1
     8    10    11   ar
     9    11    12   ar
    10    12    13   ar
    11    13     1    1
    12     1     2   ar
    13     2     3   ar
    14     3     4   ar
    15     4     5    1
    16     4     6   ar
    17     6    25    1
    18    25    26   ar
    19    26    27   ar
    20    27    28   ar
    21    28    31    1
    22    31    32    1
    23    31    33    1
    24    31    34    1
    25    28    29   ar
    26    29    30   ar
    27     6     7   ar
    28    13    14   ar
    29    14    15   ar
    30    20    23    1
    31    23    24    1
    32    24    17    1
    33    15    10   ar
    34     7     1   ar
    35    30    25   ar
    36     5     8    1
    37     5     9    1
@<TRIPOS>MOLECULE
*****
 34 37 0 0 0
SMALL
GASTEIGER

@<TRIPOS>ATOM
      1 C         143.3230  141.8003  161.4610 C.ar    1  UNL1        0.0193
      2 C         144.2186  142.9590  161.1366 C.ar    1  UNL1        0.1002
      3 N         144.4409  144.0419  162.1504 N.ar    1  UNL1       -0.2296
      4 C         143.7676  143.9662  163.4886 C.ar    1  UNL1        0.1254
      5 N         143.9899  145.0492  164.5024 N.pl3   1  UNL1       -0.3426
      6 C         142.8719  142.8075  163.8131 C.ar    1  UNL1        0.0327
      7 C         142.6496  141.7246  162.7993 C.ar    1  UNL1        0.0044
      8 H         144.5778  145.8096  164.2895 H       1  UNL1        0.1437
      9 H         143.5480  144.9995  165.3808 H       1  UNL1        0.1437
     10 C         142.6560  138.5514  158.4196 C.ar    1  UNL1        0.0536
     11 C         143.4107  139.7909  158.0398 C.ar    1  UNL1        0.0045
     12 C         143.6330  140.8738  159.0536 C.ar    1  UNL1        0.0002
     13 C         143.1006  140.7173  160.4472 C.ar    1  UNL1        0.0015
     14 C         142.3459  139.4779  160.8270 C.ar    1  UNL1        0.0002
     15 C         142.1236  138.3949  159.8132 C.ar    1  UNL1        0.0045
     16 C         137.5695  137.5979  153.8954 C.3     1  UNL1        0.0897
     17 N         138.7855  137.5656  154.7730 N.3     1  UNL1       -0.2686
     18 C         139.7793  136.4503  154.6368 C.3     1  UNL1        0.0939
     19 C         140.9953  136.4180  155.5144 C.3     1  UNL1        0.1110
     20 N         141.2176  137.5009  156.5282 N.am    1  UNL1       -0.2732
     21 C         142.4337  137.4685  157.4058 C.2     1  UNL1        0.2491
     22 O         143.4274  136.3533  157.2696 O.2     1  UNL1       -0.2699
     23 C         140.2239  138.6161  156.6644 C.3     1  UNL1        0.1110
     24 C         139.0078  138.6485  155.7868 C.3     1  UNL1        0.0939
     25 C         142.1986  142.7318  165.1513 C.ar    1  UNL1        0.0218
     26 C         140.7774  143.1870  165.3026 C.ar    1  UNL1        0.0031
     27 C         140.1040  143.1113  166.6409 C.ar    1  UNL1        0.0231
     28 C         140.8519  142.5803  167.8278 C.ar    1  UNL1        0.1526
     29 N         142.2731  142.1251  167.6764 N.ar    1  UNL1       -0.2399
     30 C         142.9464  142.2008  166.3382 C.ar    1  UNL1        0.0988
     31 C         140.1785  142.5046  169.1660 C.3     1  UNL1        0.4348
     32 F         139.5052  142.4288  170.5042 F       1  UNL1       -0.1644
     33 F         140.0822  141.0136  169.0331 F       1  UNL1       -0.1644
     34 F         140.2749  143.9956  169.2988 F       1  UNL1       -0.1644
@<TRIPOS>BOND
     1    16    17    1
     2    17    18    1
     3    18    19    1
     4    19    20    1
     5    20    21   am
     6    21    22    2
     7    21    10    1
     8    10    11   ar
     9    11    12   ar
    10    12    13   ar
    11    13     1    1
    12     1     2   ar
    13     2     3   ar
    14     3     4   ar
    15     4     5    1
    16     4     6   ar
    17     6    25    1
    18    25    26   ar
    19    26    27   ar
    20    27    28   ar
    21    28    31    1
    22    31    32    1
    23    31    33    1
    24    31    34    1
    25    28    29   ar
    26    29    30   ar
    27     6     7   ar
    28    13    14   ar
    29    14    15   ar
    30    20    23    1
    31    23    24    1
    32    24    17    1
    33    15    10   ar
    34     7     1   ar
    35    30    25   ar
    36     5     8    1
    37     5     9    1
@<TRIPOS>MOLECULE
*****
 34 37 0 0 0
SMALL
GASTEIGER

@<TRIPOS>ATOM
      1 C         140.1476  144.8769  158.2762 C.ar    1  UNL1        0.0193
      2 C         139.4982  143.7017  157.6076 C.ar    1  UNL1        0.1002
      3 N         138.7951  143.8800  156.2947 N.ar    1  UNL1       -0.2296
      4 C         138.7413  145.2335  155.6504 C.ar    1  UNL1        0.1254
      5 N         138.0381  145.4117  154.3375 N.pl3   1  UNL1       -0.3426
      6 C         139.3906  146.4087  156.3190 C.ar    1  UNL1        0.0327
      7 C         140.0938  146.2304  157.6319 C.ar    1  UNL1        0.0044
      8 H         137.6119  144.6403  153.8986 H       1  UNL1        0.1437
      9 H         138.0027  146.3001  153.9146 H       1  UNL1        0.1437
     10 C         142.2571  144.3423  162.2151 C.ar    1  UNL1        0.0536
     11 C         141.0435  145.2195  162.1272 C.ar    1  UNL1        0.0045
     12 C         140.3403  145.3977  160.8143 C.ar    1  UNL1        0.0002
     13 C         140.8508  144.6987  159.5892 C.ar    1  UNL1        0.0015
     14 C         142.0644  143.8215  159.6770 C.ar    1  UNL1        0.0002
     15 C         142.7676  143.6433  160.9900 C.ar    1  UNL1        0.0045
     16 C         141.4438  139.6291  167.1521 C.3     1  UNL1        0.0897
     17 N         141.8229  140.7628  166.2461 N.3     1  UNL1       -0.2686
     18 C         142.9051  141.7184  166.6530 C.3     1  UNL1        0.0939
     19 C         143.2843  142.8521  165.7469 C.3     1  UNL1        0.1110
     20 N         142.5811  143.0303  164.4340 N.am    1  UNL1       -0.2732
     21 C         142.9603  144.1641  163.5280 C.2     1  UNL1        0.2491
     22 O         144.0425  145.1196  163.9349 O.2     1  UNL1       -0.2699
     23 C         141.4989  142.0748  164.0271 C.3     1  UNL1        0.1110
     24 C         141.1198  140.9410  164.9332 C.3     1  UNL1        0.0939
     25 C         139.3368  147.7622  155.6748 C.ar    1  UNL1        0.0218
     26 C         140.1171  148.0279  154.4216 C.ar    1  UNL1        0.0031
     27 C         140.0633  149.3814  153.7773 C.ar    1  UNL1        0.0231
     28 C         139.2292  150.4693  154.3862 C.ar    1  UNL1        0.1526
     29 N         138.4489  150.2036  155.6394 N.ar    1  UNL1       -0.2399
     30 C         138.5027  148.8501  156.2837 C.ar    1  UNL1        0.0988
     31 C         139.1754  151.8228  153.7419 C.3     1  UNL1        0.4348
     32 F         139.1216  153.1763  153.0977 F       1  UNL1       -0.1644
     33 F         138.1395  152.2552  154.7369 F       1  UNL1       -0.1644
     34 F         140.2113  151.3904  152.7470 F       1  UNL1       -0.1644
@<TRIPOS>BOND
     1    16    17    1
     2    17    18    1
     3    18    19    1
     4    19    20    1
     5    20    21   am
     6    21    22    2
     7    21    10    1
     8    10    11   ar
     9    11    12   ar
    10    12    13   ar
    11    13     1    1
    12     1     2   ar
    13     2     3   ar
    14     3     4   ar
    15     4     5    1
    16     4     6   ar
    17     6    25    1
    18    25    26   ar
    19    26    27   ar
    20    27    28   ar
    21    28    31    1
    22    31    32    1
    23    31    33    1
    24    31    34    1
    25    28    29   ar
    26    29    30   ar
    27     6     7   ar
    28    13    14   ar
    29    14    15   ar
    30    20    23    1
    31    23    24    1
    32    24    17    1
    33    15    10   ar
    34     7     1   ar
    35    30    25   ar
    36     5     8    1
    37     5     9    1
@<TRIPOS>MOLECULE
*****
 34 37 0 0 0
SMALL
GASTEIGER

@<TRIPOS>ATOM
      1 C         140.7366  142.6354  160.6822 C.ar    1  UNL1        0.0193
      2 C         140.6949  144.0781  160.2739 C.ar    1  UNL1        0.1002
      3 N         140.9691  145.1518  161.2847 N.ar    1  UNL1       -0.2296
      4 C         141.2849  144.7829  162.7039 C.ar    1  UNL1        0.1254
      5 N         141.5590  145.8567  163.7148 N.pl3   1  UNL1       -0.3426
      6 C         141.3266  143.3401  163.1123 C.ar    1  UNL1        0.0327
      7 C         141.0525  142.2664  162.1014 C.ar    1  UNL1        0.0044
      8 H         141.5317  146.8036  163.4468 H       1  UNL1        0.1437
      9 H         141.7663  145.6146  164.6463 H       1  UNL1        0.1437
     10 C         139.9143  139.4139  157.6496 C.ar    1  UNL1        0.0536
     11 C         140.6231  140.6697  157.2364 C.ar    1  UNL1        0.0045
     12 C         140.8972  141.7435  158.2473 C.ar    1  UNL1        0.0002
     13 C         140.4625  141.5615  159.6713 C.ar    1  UNL1        0.0015
     14 C         139.7537  140.3058  160.0845 C.ar    1  UNL1        0.0002
     15 C         139.4796  139.2320  159.0737 C.ar    1  UNL1        0.0045
     16 C         143.6185  133.9289  155.7941 C.3     1  UNL1        0.0897
     17 N         142.6239  135.0317  156.0053 N.3     1  UNL1       -0.2686
     18 C         141.3552  135.0608  155.2056 C.3     1  UNL1        0.0939
     19 C         140.3607  136.1636  155.4167 C.3     1  UNL1        0.1110
     20 N         140.6348  137.2374  156.4276 N.am    1  UNL1       -0.2732
     21 C         139.6402  138.3402  156.6387 C.2     1  UNL1        0.2491
     22 O         138.3715  138.3693  155.8390 O.2     1  UNL1       -0.2699
     23 C         141.9034  137.2083  157.2273 C.3     1  UNL1        0.1110
     24 C         142.8980  136.1055  157.0161 C.3     1  UNL1        0.0939
     25 C         141.6424  142.9712  164.5315 C.ar    1  UNL1        0.0218
     26 C         140.5379  142.8542  165.5396 C.ar    1  UNL1        0.0031
     27 C         140.8537  142.4853  166.9588 C.ar    1  UNL1        0.0231
     28 C         142.2740  142.2332  167.3699 C.ar    1  UNL1        0.1526
     29 N         143.3786  142.3502  166.3618 N.ar    1  UNL1       -0.2399
     30 C         143.0627  142.7192  164.9426 C.ar    1  UNL1        0.0988
     31 C         142.5899  141.8643  168.7891 C.3     1  UNL1        0.4348
     32 F         142.9057  141.4953  170.2083 F       1  UNL1       -0.1644
     33 F         143.0778  140.5217  168.3314 F       1  UNL1       -0.1644
     34 F         142.1019  143.2068  169.2467 F       1  UNL1       -0.1644
@<TRIPOS>BOND
     1    16    17    1
     2    17    18    1
     3    18    19    1
     4    19    20    1
     5    20    21   am
     6    21    22    2
     7    21    10    1
     8    10    11   ar
     9    11    12   ar
    10    12    13   ar
    11    13     1    1
    12     1     2   ar
    13     2     3   ar
    14     3     4   ar
    15     4     5    1
    16     4     6   ar
    17     6    25    1
    18    25    26   ar
    19    26    27   ar
    20    27    28   ar
    21    28    31    1
    22    31    32    1
    23    31    33    1
    24    31    34    1
    25    28    29   ar
    26    29    30   ar
    27     6     7   ar
    28    13    14   ar
    29    14    15   ar
    30    20    23    1
    31    23    24    1
    32    24    17    1
    33    15    10   ar
    34     7     1   ar
    35    30    25   ar
    36     5     8    1
    37     5     9    1
@<TRIPOS>MOLECULE
*****
 34 37 0 0 0
SMALL
GASTEIGER

@<TRIPOS>ATOM
      1 C         139.0900  140.1918  161.0600 C.ar    1  UNL1        0.0193
      2 C         138.4786  141.3970  160.4092 C.ar    1  UNL1        0.1002
      3 N         138.5553  141.5656  158.9207 N.ar    1  UNL1       -0.2296
      4 C         139.2434  140.5289  158.0830 C.ar    1  UNL1        0.1254
      5 N         139.3201  140.6975  156.5944 N.pl3   1  UNL1       -0.3426
      6 C         139.8548  139.3237  158.7338 C.ar    1  UNL1        0.0327
      7 C         139.7781  139.1551  160.2222 C.ar    1  UNL1        0.0044
      8 H         138.9188  141.4886  156.1673 H       1  UNL1        0.1437
      9 H         139.7718  140.0171  156.0446 H       1  UNL1        0.1437
     10 C         138.8599  139.6859  165.5256 C.ar    1  UNL1        0.0536
     11 C         139.7582  138.7988  164.7155 C.ar    1  UNL1        0.0045
     12 C         139.8349  138.9674  163.2271 C.ar    1  UNL1        0.0002
     13 C         139.0132  140.0231  162.5485 C.ar    1  UNL1        0.0015
     14 C         138.1149  140.9102  163.3585 C.ar    1  UNL1        0.0002
     15 C         138.0382  140.7416  164.8471 C.ar    1  UNL1        0.0045
     16 C         142.4270  142.6771  170.5830 C.3     1  UNL1        0.0897
     17 N         141.5161  141.8872  169.6908 N.3     1  UNL1       -0.2686
     18 C         140.5284  140.9285  170.2870 C.3     1  UNL1        0.0939
     19 C         139.6175  140.1385  169.3948 C.3     1  UNL1        0.1110
     20 N         139.6942  140.3072  167.9063 N.am    1  UNL1       -0.2732
     21 C         138.7832  139.5172  167.0141 C.2     1  UNL1        0.2491
     22 O         137.7956  138.5586  167.6103 O.2     1  UNL1       -0.2699
     23 C         140.6818  141.2658  167.3101 C.3     1  UNL1        0.1110
     24 C         141.5927  142.0558  168.2023 C.3     1  UNL1        0.0939
     25 C         140.5429  138.2870  157.8960 C.ar    1  UNL1        0.0218
     26 C         142.0077  138.0232  158.0827 C.ar    1  UNL1        0.0031
     27 C         142.6958  136.9866  157.2449 C.ar    1  UNL1        0.0231
     28 C         141.9192  136.2136  156.2206 C.ar    1  UNL1        0.1526
     29 N         140.4544  136.4774  156.0339 N.ar    1  UNL1       -0.2399
     30 C         139.7663  137.5141  156.8717 C.ar    1  UNL1        0.0988
     31 C         142.6073  135.1770  155.3828 C.3     1  UNL1        0.4348
     32 F         143.2954  134.1403  154.5451 F       1  UNL1       -0.1644
     33 F         141.2813  134.5491  155.0706 F       1  UNL1       -0.1644
     34 F         143.9333  135.8048  155.6951 F       1  UNL1       -0.1644
@<TRIPOS>BOND
     1    16    17    1
     2    17    18    1
     3    18    19    1
     4    19    20    1
     5    20    21   am
     6    21    22    2
     7    21    10    1
     8    10    11   ar
     9    11    12   ar
    10    12    13   ar
    11    13     1    1
    12     1     2   ar
    13     2     3   ar
    14     3     4   ar
    15     4     5    1
    16     4     6   ar
    17     6    25    1
    18    25    26   ar
    19    26    27   ar
    20    27    28   ar
    21    28    31    1
    22    31    32    1
    23    31    33    1
    24    31    34    1
    25    28    29   ar
    26    29    30   ar
    27     6     7   ar
    28    13    14   ar
    29    14    15   ar
    30    20    23    1
    31    23    24    1
    32    24    17    1
    33    15    10   ar
    34     7     1   ar
    35    30    25   ar
    36     5     8    1
    37     5     9    1
@<TRIPOS>MOLECULE
*****
 34 37 0 0 0
SMALL
GASTEIGER

@<TRIPOS>ATOM
      1 C         142.9033  141.3484  162.5937 C.ar    1  UNL1        0.0193
      2 C         143.6981  140.1028  162.3354 C.ar    1  UNL1        0.1002
      3 N         144.0107  139.1651  163.4637 N.ar    1  UNL1       -0.2296
      4 C         143.5285  139.4730  164.8503 C.ar    1  UNL1        0.1254
      5 N         143.8411  138.5353  165.9786 N.pl3   1  UNL1       -0.3426
      6 C         142.7337  140.7186  165.1086 C.ar    1  UNL1        0.0327
      7 C         142.4211  141.6563  163.9803 C.ar    1  UNL1        0.0044
      8 H         144.3628  137.7178  165.8090 H       1  UNL1        0.1437
      9 H         143.5246  138.7374  166.8886 H       1  UNL1        0.1437
     10 C         141.9655  144.1615  159.2089 C.ar    1  UNL1        0.0536
     11 C         142.9129  143.0186  158.9937 C.ar    1  UNL1        0.0045
     12 C         143.2255  142.0810  160.1220 C.ar    1  UNL1        0.0002
     13 C         142.5907  142.2861  161.4654 C.ar    1  UNL1        0.0015
     14 C         141.6433  143.4289  161.6807 C.ar    1  UNL1        0.0002
     15 C         141.3307  144.3667  160.5524 C.ar    1  UNL1        0.0045
     16 C         136.9495  144.0347  154.5106 C.3     1  UNL1        0.0897
     17 N         138.1253  144.3009  155.4031 N.3     1  UNL1       -0.2686
     18 C         138.9886  145.5046  155.1674 C.3     1  UNL1        0.0939
     19 C         140.1645  145.7708  156.0599 C.3     1  UNL1        0.1110
     20 N         140.4770  144.8331  157.1881 N.am    1  UNL1       -0.2732
     21 C         141.6529  145.0992  158.0806 C.2     1  UNL1        0.2491
     22 O         142.5162  146.3030  157.8449 O.2     1  UNL1       -0.2699
     23 C         139.6138  143.6293  157.4239 C.3     1  UNL1        0.1110
     24 C         138.4379  143.3632  156.5314 C.3     1  UNL1        0.0939
     25 C         142.2515  141.0265  166.4952 C.ar    1  UNL1        0.0218
     26 C         142.9876  142.0225  167.3414 C.ar    1  UNL1        0.0031
     27 C         142.5054  142.3304  168.7280 C.ar    1  UNL1        0.0231
     28 C         141.2871  141.6423  169.2684 C.ar    1  UNL1        0.1526
     29 N         140.5509  140.6463  168.4222 N.ar    1  UNL1       -0.2399
     30 C         141.0331  140.3384  167.0356 C.ar    1  UNL1        0.0988
     31 C         140.8048  141.9502  170.6550 C.3     1  UNL1        0.4348
     32 F         140.3226  142.2581  172.0416 F       1  UNL1       -0.1644
     33 F         142.2250  142.0819  171.1196 F       1  UNL1       -0.1644
     34 F         139.3847  141.8186  170.1904 F       1  UNL1       -0.1644
@<TRIPOS>BOND
     1    16    17    1
     2    17    18    1
     3    18    19    1
     4    19    20    1
     5    20    21   am
     6    21    22    2
     7    21    10    1
     8    10    11   ar
     9    11    12   ar
    10    12    13   ar
    11    13     1    1
    12     1     2   ar
    13     2     3   ar
    14     3     4   ar
    15     4     5    1
    16     4     6   ar
    17     6    25    1
    18    25    26   ar
    19    26    27   ar
    20    27    28   ar
    21    28    31    1
    22    31    32    1
    23    31    33    1
    24    31    34    1
    25    28    29   ar
    26    29    30   ar
    27     6     7   ar
    28    13    14   ar
    29    14    15   ar
    30    20    23    1
    31    23    24    1
    32    24    17    1
    33    15    10   ar
    34     7     1   ar
    35    30    25   ar
    36     5     8    1
    37     5     9    1
