@<TRIPOS>MOLECULE
*****
 50 54 0 0 0
SMALL
GASTEIGER

@<TRIPOS>ATOM
      1 C         140.8373  142.8473  159.3709 C.ar    1  UNL1        0.0182
      2 C         140.0510  142.7046  158.1014 C.ar    1  UNL1        0.0028
      3 C         139.6636  143.9237  157.3181 C.ar    1  UNL1        0.0231
      4 C         140.0625  145.2856  157.8041 C.ar    1  UNL1        0.1523
      5 N         140.8487  145.4283  159.0735 N.ar    1  UNL1       -0.2440
      6 C         141.2361  144.2092  159.8569 C.ar    1  UNL1        0.0791
      7 C         142.3745  140.7788  159.6999 C.ar    1  UNL1        0.1387
      8 C         142.7618  139.5597  160.4833 C.ar    1  UNL1        0.0369
      9 C         141.9993  139.1900  161.7210 C.ar    1  UNL1        0.0031
     10 C         140.8495  140.0393  162.1754 C.ar    1  UNL1       -0.0001
     11 C         140.4622  141.2584  161.3920 C.ar    1  UNL1        0.0030
     12 C         141.2247  141.6282  160.1543 C.ar    1  UNL1        0.0352
     13 C         140.0870  139.6696  163.4131 C.ar    1  UNL1       -0.0039
     14 C         138.9693  140.5460  163.8952 C.ar    1  UNL1       -0.0003
     15 C         138.2068  140.1763  165.1330 C.ar    1  UNL1        0.0011
     16 C         138.5621  138.9302  165.8885 C.ar    1  UNL1        0.0137
     17 C         139.6798  138.0537  165.4063 C.ar    1  UNL1       -0.0031
     18 C         140.4423  138.4235  164.1686 C.ar    1  UNL1       -0.0218
     19 C         141.5601  137.5470  163.6865 C.3     1  UNL1        0.0310
     20 C         137.7996  138.5604  167.1262 C.2     1  UNL1        0.0729
     21 O         136.7262  137.5147  167.0615 O.co2   1  UNL1       -0.5446
     22 O         138.1105  139.2364  168.4286 O.co2   1  UNL1       -0.5446
     23 C         144.2550  142.1454  158.5399 C.3     1  UNL1        0.2525
     24 O         143.1369  141.1485  158.4622 O.3     1  UNL1       -0.4714
     25 C         139.6751  146.5047  157.0207 C.3     1  UNL1        0.4348
     26 F         139.2877  147.7237  156.2373 F       1  UNL1       -0.1644
     27 F         139.2593  147.1880  158.2896 F       1  UNL1       -0.1644
     28 F         140.0908  145.8214  155.7518 F       1  UNL1       -0.1644
     29 C         142.0223  144.3519  161.1264 C.3     1  UNL1        0.1426
     30 N         141.3704  144.0713  162.4479 N.am    1  UNL1       -0.2380
     31 C         140.0416  144.5963  162.9045 C.2     1  UNL1        0.4055
     32 O         139.1313  145.4940  162.1199 O.2     1  UNL1       -0.2262
     33 O         139.7828  144.0660  164.2836 O.3     1  UNL1       -0.4320
     34 C         140.9518  143.2132  164.6792 C.3     1  UNL1        0.2107
     35 C         141.9330  143.2166  163.5447 C.3     1  UNL1        0.1233
     36 C         143.2461  142.4924  163.5125 C.3     1  UNL1        0.0258
     37 C         141.1115  142.4851  165.9808 C.ar    1  UNL1        0.0189
     38 C         140.4816  143.0310  167.2279 C.ar    1  UNL1        0.0031
     39 C         140.6413  142.3029  168.5295 C.ar    1  UNL1        0.0712
     40 C         141.4309  141.0287  168.5841 C.ar    1  UNL1        0.0077
     41 C         142.0608  140.4826  167.3370 C.ar    1  UNL1        0.0712
     42 C         141.9010  141.2109  166.0354 C.ar    1  UNL1        0.0031
     43 C         140.0115  142.8489  169.7765 C.3     1  UNL1        0.4186
     44 F         139.3816  143.3949  171.0236 F       1  UNL1       -0.1659
     45 F         139.3007  141.5451  169.9884 F       1  UNL1       -0.1659
     46 F         140.7223  144.1528  169.5647 F       1  UNL1       -0.1659
     47 C         142.8504  139.2084  167.3916 C.3     1  UNL1        0.4186
     48 F         143.6399  137.9342  167.4462 F       1  UNL1       -0.1659
     49 F         143.2017  139.3640  165.9416 F       1  UNL1       -0.1659
     50 F         142.4990  139.0528  168.8415 F       1  UNL1       -0.1659
@<TRIPOS>UNITY_ATOM_ATTR
21 1
charge -1
@<TRIPOS>BOND
     1    23    24    1
     2    24     7    1
     3     7     8   ar
     4     8     9   ar
     5     9    10   ar
     6    10    13    1
     7    13    14   ar
     8    14    15   ar
     9    15    16   ar
    10    16    20    1
    11    20    21   ar
    12    20    22   ar
    13    16    17   ar
    14    17    18   ar
    15    18    19    1
    16    10    11   ar
    17    11    12   ar
    18    12     1    1
    19     1     2   ar
    20     2     3   ar
    21     3     4   ar
    22     4    25    1
    23    25    26    1
    24    25    27    1
    25    25    28    1
    26     4     5   ar
    27     5     6   ar
    28     6    29    1
    29    29    30    1
    30    30    31   am
    31    31    32    2
    32    31    33    1
    33    33    34    1
    34    34    37    1
    35    37    38   ar
    36    38    39   ar
    37    39    43    1
    38    43    44    1
    39    43    45    1
    40    43    46    1
    41    39    40   ar
    42    40    41   ar
    43    41    47    1
    44    47    48    1
    45    47    49    1
    46    47    50    1
    47    41    42   ar
    48    34    35    1
    49    35    36    1
    50    12     7   ar
    51     6     1   ar
    52    35    30    1
    53    18    13   ar
    54    42    37   ar
@<TRIPOS>MOLECULE
*****
 50 54 0 0 0
SMALL
GASTEIGER

@<TRIPOS>ATOM
      1 C         140.5419  142.2147  158.9115 C.ar    1  UNL1        0.0182
      2 C         139.5806  142.2266  157.7601 C.ar    1  UNL1        0.0028
      3 C         139.3375  143.4961  156.9992 C.ar    1  UNL1        0.0231
      4 C         140.0558  144.7538  157.3896 C.ar    1  UNL1        0.1523
      5 N         141.0171  144.7419  158.5410 N.ar    1  UNL1       -0.2440
      6 C         141.2602  143.4723  159.3020 C.ar    1  UNL1        0.0791
      7 C         141.6426  139.8672  159.0787 C.ar    1  UNL1        0.1387
      8 C         141.8857  138.5977  159.8397 C.ar    1  UNL1        0.0369
      9 C         141.2711  138.4060  161.1945 C.ar    1  UNL1        0.0031
     10 C         140.4135  139.4838  161.7884 C.ar    1  UNL1       -0.0001
     11 C         140.1705  140.7534  161.0274 C.ar    1  UNL1        0.0030
     12 C         140.7850  140.9451  159.6725 C.ar    1  UNL1        0.0352
     13 C         139.7989  139.2921  163.1432 C.ar    1  UNL1       -0.0039
     14 C         138.7487  140.2451  163.6320 C.ar    1  UNL1       -0.0003
     15 C         138.1341  140.0534  164.9868 C.ar    1  UNL1        0.0011
     16 C         138.5698  138.9088  165.8529 C.ar    1  UNL1        0.0137
     17 C         139.6200  137.9559  165.3641 C.ar    1  UNL1       -0.0031
     18 C         140.2346  138.1476  164.0092 C.ar    1  UNL1       -0.0218
     19 C         141.2848  137.1946  163.5204 C.3     1  UNL1        0.0310
     20 C         137.9552  138.7171  167.2077 C.2     1  UNL1        0.0729
     21 O         136.7893  137.7889  167.3778 O.co2   1  UNL1       -0.5446
     22 O         138.5066  139.4536  168.3924 O.co2   1  UNL1       -0.5446
     23 C         143.6583  140.5804  157.6029 C.3     1  UNL1        0.2525
     24 O         142.2572  140.0589  157.7239 O.3     1  UNL1       -0.4714
     25 C         139.8127  146.0234  156.6286 C.3     1  UNL1        0.4348
     26 F         139.5696  147.2929  155.8676 F       1  UNL1       -0.1644
     27 F         138.5701  145.4293  156.0345 F       1  UNL1       -0.1644
     28 F         141.0553  146.6174  157.2227 F       1  UNL1       -0.1644
     29 C         142.2215  143.4604  160.4534 C.3     1  UNL1        0.1426
     30 N         141.7059  143.3880  161.8602 N.am    1  UNL1       -0.2380
     31 C         140.6300  144.2507  162.4503 C.2     1  UNL1        0.4055
     32 O         139.8809  145.3373  161.7375 O.2     1  UNL1       -0.2262
     33 O         140.4348  143.8360  163.8787 O.3     1  UNL1       -0.4320
     34 C         141.3901  142.7170  164.1711 C.3     1  UNL1        0.2107
     35 C         142.1756  142.4401  162.9236 C.3     1  UNL1        0.1233
     36 C         143.2433  141.3984  162.7670 C.3     1  UNL1        0.0258
     37 C         141.5344  142.0008  165.4811 C.ar    1  UNL1        0.0189
     38 C         142.3192  140.7246  165.5557 C.ar    1  UNL1        0.0031
     39 C         142.4635  140.0083  166.8656 C.ar    1  UNL1        0.0712
     40 C         141.8231  140.5681  168.1011 C.ar    1  UNL1        0.0077
     41 C         141.0382  141.8443  168.0266 C.ar    1  UNL1        0.0712
     42 C         140.8939  142.5606  166.7165 C.ar    1  UNL1        0.0031
     43 C         143.2483  138.7322  166.9401 C.3     1  UNL1        0.4186
     44 F         144.0331  137.4561  167.0147 F       1  UNL1       -0.1659
     45 F         143.5501  138.8322  165.4742 F       1  UNL1       -0.1659
     46 F         142.9465  138.6322  168.4061 F       1  UNL1       -0.1659
     47 C         140.3977  142.4042  169.2620 C.3     1  UNL1        0.4186
     48 F         139.7573  142.9640  170.4975 F       1  UNL1       -0.1659
     49 F         140.0927  143.6760  168.5276 F       1  UNL1       -0.1659
     50 F         140.7028  141.1323  169.9965 F       1  UNL1       -0.1659
@<TRIPOS>UNITY_ATOM_ATTR
21 1
charge -1
@<TRIPOS>BOND
     1    23    24    1
     2    24     7    1
     3     7     8   ar
     4     8     9   ar
     5     9    10   ar
     6    10    13    1
     7    13    14   ar
     8    14    15   ar
     9    15    16   ar
    10    16    20    1
    11    20    21   ar
    12    20    22   ar
    13    16    17   ar
    14    17    18   ar
    15    18    19    1
    16    10    11   ar
    17    11    12   ar
    18    12     1    1
    19     1     2   ar
    20     2     3   ar
    21     3     4   ar
    22     4    25    1
    23    25    26    1
    24    25    27    1
    25    25    28    1
    26     4     5   ar
    27     5     6   ar
    28     6    29    1
    29    29    30    1
    30    30    31   am
    31    31    32    2
    32    31    33    1
    33    33    34    1
    34    34    37    1
    35    37    38   ar
    36    38    39   ar
    37    39    43    1
    38    43    44    1
    39    43    45    1
    40    43    46    1
    41    39    40   ar
    42    40    41   ar
    43    41    47    1
    44    47    48    1
    45    47    49    1
    46    47    50    1
    47    41    42   ar
    48    34    35    1
    49    35    36    1
    50    12     7   ar
    51     6     1   ar
    52    35    30    1
    53    18    13   ar
    54    42    37   ar
@<TRIPOS>MOLECULE
*****
 50 54 0 0 0
SMALL
GASTEIGER

@<TRIPOS>ATOM
      1 C         141.9401  142.8199  159.2318 C.ar    1  UNL1        0.0182
      2 C         142.9178  143.6513  158.4553 C.ar    1  UNL1        0.0028
      3 C         142.4275  144.7786  157.5960 C.ar    1  UNL1        0.0231
      4 C         140.9593  145.0747  157.5130 C.ar    1  UNL1        0.1523
      5 N         139.9815  144.2434  158.2895 N.ar    1  UNL1       -0.2440
      6 C         140.4720  143.1160  159.1489 C.ar    1  UNL1        0.0791
      7 C         142.8487  140.3968  159.4618 C.ar    1  UNL1        0.1387
      8 C         143.3391  139.2695  160.3212 C.ar    1  UNL1        0.0369
      9 C         143.4113  139.4379  161.8100 C.ar    1  UNL1        0.0031
     10 C         142.9932  140.7336  162.4394 C.ar    1  UNL1       -0.0001
     11 C         142.5028  141.8609  161.5800 C.ar    1  UNL1        0.0030
     12 C         142.4305  141.6925  160.0912 C.ar    1  UNL1        0.0352
     13 C         143.0654  140.9020  163.9281 C.ar    1  UNL1       -0.0039
     14 C         143.5637  142.1899  164.5139 C.ar    1  UNL1       -0.0003
     15 C         143.6359  142.3583  166.0027 C.ar    1  UNL1        0.0011
     16 C         143.2099  141.2389  166.9056 C.ar    1  UNL1        0.0137
     17 C         142.7117  139.9511  166.3199 C.ar    1  UNL1       -0.0031
     18 C         142.6394  139.7826  164.8311 C.ar    1  UNL1       -0.0218
     19 C         142.1411  138.4947  164.2453 C.3     1  UNL1        0.0310
     20 C         143.2822  141.4073  168.3944 C.2     1  UNL1        0.0729
     21 O         143.5739  142.7556  168.9834 O.co2   1  UNL1       -0.5446
     22 O         143.0627  140.2274  169.2942 O.co2   1  UNL1       -0.5446
     23 C         144.0267  140.3059  157.1480 C.3     1  UNL1        0.2525
     24 O         142.7764  140.2284  157.9731 O.3     1  UNL1       -0.4714
     25 C         140.4689  146.2020  156.6537 C.3     1  UNL1        0.4348
     26 F         139.9785  147.3294  155.7943 F       1  UNL1       -0.1644
     27 F         141.3030  145.6963  155.5142 F       1  UNL1       -0.1644
     28 F         139.6348  146.7078  157.7931 F       1  UNL1       -0.1644
     29 C         139.4942  142.2846  159.9253 C.3     1  UNL1        0.1426
     30 N         139.3659  142.4677  161.4086 N.am    1  UNL1       -0.2380
     31 C         139.2154  143.7767  162.1256 C.2     1  UNL1        0.4055
     32 O         139.1668  145.1323  161.4853 O.2     1  UNL1       -0.2262
     33 O         139.1220  143.4920  163.5955 O.3     1  UNL1       -0.4320
     34 C         139.2147  142.0071  163.7868 C.3     1  UNL1        0.2107
     35 C         139.3655  141.3741  162.4352 C.3     1  UNL1        0.1233
     36 C         139.4933  139.9054  162.1588 C.3     1  UNL1        0.0258
     37 C         139.1654  141.2824  165.0991 C.ar    1  UNL1        0.0189
     38 C         139.6678  141.9510  166.3444 C.ar    1  UNL1        0.0031
     39 C         139.6185  141.2264  167.6568 C.ar    1  UNL1        0.0712
     40 C         139.0668  139.8331  167.7240 C.ar    1  UNL1        0.0077
     41 C         138.5644  139.1645  166.4787 C.ar    1  UNL1        0.0712
     42 C         138.6138  139.8892  165.1663 C.ar    1  UNL1        0.0031
     43 C         140.1209  141.8949  168.9020 C.3     1  UNL1        0.4186
     44 F         140.6232  142.5635  170.1472 F       1  UNL1       -0.1659
     45 F         140.4306  143.1323  168.1127 F       1  UNL1       -0.1659
     46 F         139.8111  140.6575  169.6914 F       1  UNL1       -0.1659
     47 C         138.0128  137.7712  166.5459 C.3     1  UNL1        0.4186
     48 F         137.4611  136.3780  166.6131 F       1  UNL1       -0.1659
     49 F         137.0741  138.1955  167.6363 F       1  UNL1       -0.1659
     50 F         138.9514  137.3469  165.4556 F       1  UNL1       -0.1659
@<TRIPOS>UNITY_ATOM_ATTR
21 1
charge -1
@<TRIPOS>BOND
     1    23    24    1
     2    24     7    1
     3     7     8   ar
     4     8     9   ar
     5     9    10   ar
     6    10    13    1
     7    13    14   ar
     8    14    15   ar
     9    15    16   ar
    10    16    20    1
    11    20    21   ar
    12    20    22   ar
    13    16    17   ar
    14    17    18   ar
    15    18    19    1
    16    10    11   ar
    17    11    12   ar
    18    12     1    1
    19     1     2   ar
    20     2     3   ar
    21     3     4   ar
    22     4    25    1
    23    25    26    1
    24    25    27    1
    25    25    28    1
    26     4     5   ar
    27     5     6   ar
    28     6    29    1
    29    29    30    1
    30    30    31   am
    31    31    32    2
    32    31    33    1
    33    33    34    1
    34    34    37    1
    35    37    38   ar
    36    38    39   ar
    37    39    43    1
    38    43    44    1
    39    43    45    1
    40    43    46    1
    41    39    40   ar
    42    40    41   ar
    43    41    47    1
    44    47    48    1
    45    47    49    1
    46    47    50    1
    47    41    42   ar
    48    34    35    1
    49    35    36    1
    50    12     7   ar
    51     6     1   ar
    52    35    30    1
    53    18    13   ar
    54    42    37   ar
@<TRIPOS>MOLECULE
*****
 50 54 0 0 0
SMALL
GASTEIGER

@<TRIPOS>ATOM
      1 C         140.9617  138.7417  158.2958 C.ar    1  UNL1        0.0182
      2 C         140.3764  137.6934  157.3967 C.ar    1  UNL1        0.0028
      3 C         141.2780  136.8309  156.5642 C.ar    1  UNL1        0.0231
      4 C         142.7650  137.0167  156.6307 C.ar    1  UNL1        0.1523
      5 N         143.3503  138.0650  157.5299 N.ar    1  UNL1       -0.2440
      6 C         142.4486  138.9275  158.3624 C.ar    1  UNL1        0.0791
      7 C         139.3919  140.8001  158.5172 C.ar    1  UNL1        0.1387
      8 C         138.4902  141.6625  159.3498 C.ar    1  UNL1        0.0369
      9 C         138.2568  141.3291  160.7935 C.ar    1  UNL1        0.0031
     10 C         138.9249  140.1333  161.4047 C.ar    1  UNL1       -0.0001
     11 C         139.8265  139.2709  160.5721 C.ar    1  UNL1        0.0030
     12 C         140.0600  139.6042  159.1284 C.ar    1  UNL1        0.0352
     13 C         138.6914  139.8000  162.8484 C.ar    1  UNL1       -0.0039
     14 C         139.1272  138.4714  163.3913 C.ar    1  UNL1       -0.0003
     15 C         138.8937  138.1380  164.8351 C.ar    1  UNL1        0.0011
     16 C         138.2244  139.1332  165.7359 C.ar    1  UNL1        0.0137
     17 C         137.7886  140.4619  165.1929 C.ar    1  UNL1       -0.0031
     18 C         138.0221  140.7952  163.7492 C.ar    1  UNL1       -0.0218
     19 C         137.5863  142.1239  163.2063 C.3     1  UNL1        0.0310
     20 C         137.9909  138.7999  167.1796 C.2     1  UNL1        0.0729
     21 O         138.8171  139.4582  168.2445 O.co2   1  UNL1       -0.5446
     22 O         136.9313  137.8082  167.5585 O.co2   1  UNL1       -0.5446
     23 C         140.7759  142.0133  156.6835 C.3     1  UNL1        0.2525
     24 O         139.6254  141.1334  157.0735 O.3     1  UNL1       -0.4714
     25 C         143.6666  136.1542  155.7982 C.3     1  UNL1        0.4348
     26 F         144.5682  135.2917  154.9657 F       1  UNL1       -0.1644
     27 F         144.4219  137.3718  155.3547 F       1  UNL1       -0.1644
     28 F         142.9112  134.9365  156.2417 F       1  UNL1       -0.1644
     29 C         143.0339  139.9758  159.2616 C.3     1  UNL1        0.1426
     30 N         142.9344  139.8272  160.7509 N.am    1  UNL1       -0.2380
     31 C         143.3483  138.6247  161.5464 C.2     1  UNL1        0.4055
     32 O         143.9343  137.3600  160.9925 O.2     1  UNL1       -0.2262
     33 O         143.0732  138.9092  162.9934 O.3     1  UNL1       -0.4320
     34 C         142.4894  140.2875  163.0920 C.3     1  UNL1        0.2107
     35 C         142.4036  140.8547  161.7060 C.3     1  UNL1        0.1233
     36 C         141.8791  142.2114  161.3395 C.3     1  UNL1        0.0258
     37 C         142.0657  140.9772  164.3547 C.ar    1  UNL1        0.0189
     38 C         141.1374  142.1538  164.2916 C.ar    1  UNL1        0.0031
     39 C         140.7137  142.8435  165.5543 C.ar    1  UNL1        0.0712
     40 C         141.2184  142.3568  166.8803 C.ar    1  UNL1        0.0077
     41 C         142.1467  141.1803  166.9436 C.ar    1  UNL1        0.0712
     42 C         142.5704  140.4905  165.6808 C.ar    1  UNL1        0.0031
     43 C         139.7854  144.0200  165.4911 C.3     1  UNL1        0.4186
     44 F         138.8571  145.1965  165.4278 F       1  UNL1       -0.1659
     45 F         139.9591  144.0771  164.0023 F       1  UNL1       -0.1659
     46 F         139.6117  143.9630  166.9799 F       1  UNL1       -0.1659
     47 C         142.6514  140.6935  168.2697 C.3     1  UNL1        0.4186
     48 F         143.1560  140.2068  169.5957 F       1  UNL1       -0.1659
     49 F         143.2885  142.0287  168.5173 F       1  UNL1       -0.1659
     50 F         142.0143  139.3584  168.0221 F       1  UNL1       -0.1659
@<TRIPOS>UNITY_ATOM_ATTR
21 1
charge -1
@<TRIPOS>BOND
     1    23    24    1
     2    24     7    1
     3     7     8   ar
     4     8     9   ar
     5     9    10   ar
     6    10    13    1
     7    13    14   ar
     8    14    15   ar
     9    15    16   ar
    10    16    20    1
    11    20    21   ar
    12    20    22   ar
    13    16    17   ar
    14    17    18   ar
    15    18    19    1
    16    10    11   ar
    17    11    12   ar
    18    12     1    1
    19     1     2   ar
    20     2     3   ar
    21     3     4   ar
    22     4    25    1
    23    25    26    1
    24    25    27    1
    25    25    28    1
    26     4     5   ar
    27     5     6   ar
    28     6    29    1
    29    29    30    1
    30    30    31   am
    31    31    32    2
    32    31    33    1
    33    33    34    1
    34    34    37    1
    35    37    38   ar
    36    38    39   ar
    37    39    43    1
    38    43    44    1
    39    43    45    1
    40    43    46    1
    41    39    40   ar
    42    40    41   ar
    43    41    47    1
    44    47    48    1
    45    47    49    1
    46    47    50    1
    47    41    42   ar
    48    34    35    1
    49    35    36    1
    50    12     7   ar
    51     6     1   ar
    52    35    30    1
    53    18    13   ar
    54    42    37   ar
@<TRIPOS>MOLECULE
*****
 50 54 0 0 0
SMALL
GASTEIGER

@<TRIPOS>ATOM
      1 C         140.8593  142.1343  158.4716 C.ar    1  UNL1        0.0182
      2 C         141.8005  142.7801  157.4985 C.ar    1  UNL1        0.0028
      3 C         141.5122  144.1568  156.9773 C.ar    1  UNL1        0.0231
      4 C         140.2827  144.8877  157.4293 C.ar    1  UNL1        0.1523
      5 N         139.3415  144.2418  158.4024 N.ar    1  UNL1       -0.2440
      6 C         139.6298  142.8651  158.9236 C.ar    1  UNL1        0.0791
      7 C         141.0048  139.5686  158.0895 C.ar    1  UNL1        0.1387
      8 C         141.2931  138.1919  158.6107 C.ar    1  UNL1        0.0369
      9 C         141.7242  138.0042  160.0351 C.ar    1  UNL1        0.0031
     10 C         141.8669  139.1932  160.9384 C.ar    1  UNL1       -0.0001
     11 C         141.5786  140.5698  160.4172 C.ar    1  UNL1        0.0030
     12 C         141.1476  140.7575  158.9928 C.ar    1  UNL1        0.0352
     13 C         142.2979  139.0055  162.3628 C.ar    1  UNL1       -0.0039
     14 C         141.4123  138.2690  163.3235 C.ar    1  UNL1       -0.0003
     15 C         141.8433  138.0813  164.7480 C.ar    1  UNL1        0.0011
     16 C         143.1600  138.6301  165.2116 C.ar    1  UNL1        0.0137
     17 C         144.0456  139.3667  164.2509 C.ar    1  UNL1       -0.0031
     18 C         143.6146  139.5543  162.8265 C.ar    1  UNL1       -0.0218
     19 C         144.5004  140.2909  161.8657 C.3     1  UNL1        0.0310
     20 C         143.5910  138.4425  166.6361 C.2     1  UNL1        0.0729
     21 O         144.5257  137.3258  166.9959 O.co2   1  UNL1       -0.5446
     22 O         143.0874  139.3714  167.7006 O.co2   1  UNL1       -0.5446
     23 C         139.4236  138.9634  156.1189 C.3     1  UNL1        0.2525
     24 O         140.5738  139.7562  156.6651 O.3     1  UNL1       -0.4714
     25 C         139.9945  146.2644  156.9082 C.3     1  UNL1        0.4348
     26 F         139.7062  147.6410  156.3870 F       1  UNL1       -0.1644
     27 F         139.6008  146.7040  158.2872 F       1  UNL1       -0.1644
     28 F         140.3882  145.8248  155.5292 F       1  UNL1       -0.1644
     29 C         138.6886  142.2192  159.8967 C.3     1  UNL1        0.1426
     30 N         138.8999  142.3920  161.3718 N.am    1  UNL1       -0.2380
     31 C         139.1945  143.6838  162.0748 C.2     1  UNL1        0.4055
     32 O         139.3295  145.0297  161.4265 O.2     1  UNL1       -0.2262
     33 O         139.3303  143.3935  163.5403 O.3     1  UNL1       -0.4320
     34 C         139.1196  141.9222  163.7427 C.3     1  UNL1        0.2107
     35 C         138.8536  141.3032  162.4025 C.3     1  UNL1        0.1233
     36 C         138.5880  139.8506  162.1393 C.3     1  UNL1        0.0258
     37 C         139.1667  141.1972  165.0550 C.ar    1  UNL1        0.0189
     38 C         139.8818  141.8074  166.2239 C.ar    1  UNL1        0.0031
     39 C         139.9288  141.0824  167.5361 C.ar    1  UNL1        0.0712
     40 C         139.2608  139.7471  167.6796 C.ar    1  UNL1        0.0077
     41 C         138.5457  139.1367  166.5107 C.ar    1  UNL1        0.0712
     42 C         138.4987  139.8618  165.1984 C.ar    1  UNL1        0.0031
     43 C         140.6439  141.6927  168.7049 C.3     1  UNL1        0.4186
     44 F         141.3590  142.3030  169.8737 F       1  UNL1       -0.1659
     45 F         140.6217  140.3689  169.4098 F       1  UNL1       -0.1659
     46 F         140.6662  143.0167  168.0000 F       1  UNL1       -0.1659
     47 C         137.8777  137.8014  166.6542 C.3     1  UNL1        0.4186
     48 F         137.2097  136.4660  166.7977 F       1  UNL1       -0.1659
     49 F         137.0509  138.3366  167.7855 F       1  UNL1       -0.1659
     50 F         138.7045  137.2662  165.5229 F       1  UNL1       -0.1659
@<TRIPOS>UNITY_ATOM_ATTR
21 1
charge -1
@<TRIPOS>BOND
     1    23    24    1
     2    24     7    1
     3     7     8   ar
     4     8     9   ar
     5     9    10   ar
     6    10    13    1
     7    13    14   ar
     8    14    15   ar
     9    15    16   ar
    10    16    20    1
    11    20    21   ar
    12    20    22   ar
    13    16    17   ar
    14    17    18   ar
    15    18    19    1
    16    10    11   ar
    17    11    12   ar
    18    12     1    1
    19     1     2   ar
    20     2     3   ar
    21     3     4   ar
    22     4    25    1
    23    25    26    1
    24    25    27    1
    25    25    28    1
    26     4     5   ar
    27     5     6   ar
    28     6    29    1
    29    29    30    1
    30    30    31   am
    31    31    32    2
    32    31    33    1
    33    33    34    1
    34    34    37    1
    35    37    38   ar
    36    38    39   ar
    37    39    43    1
    38    43    44    1
    39    43    45    1
    40    43    46    1
    41    39    40   ar
    42    40    41   ar
    43    41    47    1
    44    47    48    1
    45    47    49    1
    46    47    50    1
    47    41    42   ar
    48    34    35    1
    49    35    36    1
    50    12     7   ar
    51     6     1   ar
    52    35    30    1
    53    18    13   ar
    54    42    37   ar
@<TRIPOS>MOLECULE
*****
 50 54 0 0 0
SMALL
GASTEIGER

@<TRIPOS>ATOM
      1 C         141.1507  138.8940  158.2028 C.ar    1  UNL1        0.0182
      2 C         140.2240  138.0042  157.4286 C.ar    1  UNL1        0.0028
      3 C         140.7816  136.9818  156.4833 C.ar    1  UNL1        0.0231
      4 C         142.2660  136.8492  156.3121 C.ar    1  UNL1        0.1523
      5 N         143.1926  137.7391  157.0863 N.ar    1  UNL1       -0.2440
      6 C         142.6349  138.7616  158.0317 C.ar    1  UNL1        0.0791
      7 C         140.3626  141.3231  158.6811 C.ar    1  UNL1        0.1387
      8 C         139.8050  142.3455  159.6265 C.ar    1  UNL1        0.0369
      9 C         139.4776  141.9612  161.0390 C.ar    1  UNL1        0.0031
     10 C         139.7080  140.5545  161.5061 C.ar    1  UNL1       -0.0001
     11 C         140.2657  139.5322  160.5607 C.ar    1  UNL1        0.0030
     12 C         140.5930  139.9165  159.1482 C.ar    1  UNL1        0.0352
     13 C         139.3807  140.1702  162.9186 C.ar    1  UNL1       -0.0039
     14 C         138.7920  138.8221  163.2119 C.ar    1  UNL1       -0.0003
     15 C         138.4646  138.4378  164.6244 C.ar    1  UNL1        0.0011
     16 C         138.7260  139.4016  165.7436 C.ar    1  UNL1        0.0137
     17 C         139.3148  140.7497  165.4504 C.ar    1  UNL1       -0.0031
     18 C         139.6421  141.1340  164.0379 C.ar    1  UNL1       -0.0218
     19 C         140.2308  142.4822  163.7446 C.3     1  UNL1        0.0310
     20 C         138.3987  139.0173  167.1562 C.2     1  UNL1        0.0729
     21 O         139.1118  139.6791  168.2979 O.co2   1  UNL1       -0.5446
     22 O         137.3583  137.9713  167.4269 O.co2   1  UNL1       -0.5446
     23 C         141.7614  142.7211  156.9962 C.3     1  UNL1        0.2525
     24 O         140.6899  141.7074  157.2686 O.3     1  UNL1       -0.4714
     25 C         142.8236  135.8268  155.3667 C.3     1  UNL1        0.4348
     26 F         143.3812  134.8045  154.4214 F       1  UNL1       -0.1644
     27 F         144.1477  135.9010  156.0676 F       1  UNL1       -0.1644
     28 F         141.4995  135.7527  154.6659 F       1  UNL1       -0.1644
     29 C         143.5616  139.6514  158.8059 C.3     1  UNL1        0.1426
     30 N         143.6441  139.5309  160.2988 N.am    1  UNL1       -0.2380
     31 C         143.8920  138.2678  161.0689 C.2     1  UNL1        0.4055
     32 O         144.1010  136.9035  160.4815 O.2     1  UNL1       -0.2262
     33 O         143.8943  138.6085  162.5298 O.3     1  UNL1       -0.4320
     34 C         143.6477  140.0822  162.6624 C.3     1  UNL1        0.2107
     35 C         143.4931  140.6522  161.2836 C.3     1  UNL1        0.1233
     36 C         143.2332  142.0909  160.9484 C.3     1  UNL1        0.0258
     37 C         143.5696  140.8508  163.9481 C.ar    1  UNL1        0.0189
     38 C         143.0921  140.1741  165.1987 C.ar    1  UNL1        0.0031
     39 C         143.0139  140.9427  166.4844 C.ar    1  UNL1        0.0712
     40 C         143.4132  142.3881  166.5195 C.ar    1  UNL1        0.0077
     41 C         143.8907  143.0650  165.2689 C.ar    1  UNL1        0.0712
     42 C         143.9689  142.2962  163.9832 C.ar    1  UNL1        0.0031
     43 C         142.5364  140.2659  167.7350 C.3     1  UNL1        0.4186
     44 F         142.0589  139.5892  168.9855 F       1  UNL1       -0.1659
     45 F         141.9655  139.1490  166.9125 F       1  UNL1       -0.1659
     46 F         143.1073  141.3829  168.5575 F       1  UNL1       -0.1659
     47 C         144.2901  144.5104  165.3041 C.3     1  UNL1        0.4186
     48 F         144.6894  145.9558  165.3392 F       1  UNL1       -0.1659
     49 F         143.1711  144.8424  164.3619 F       1  UNL1       -0.1659
     50 F         145.4090  144.1783  166.2462 F       1  UNL1       -0.1659
@<TRIPOS>UNITY_ATOM_ATTR
21 1
charge -1
@<TRIPOS>BOND
     1    23    24    1
     2    24     7    1
     3     7     8   ar
     4     8     9   ar
     5     9    10   ar
     6    10    13    1
     7    13    14   ar
     8    14    15   ar
     9    15    16   ar
    10    16    20    1
    11    20    21   ar
    12    20    22   ar
    13    16    17   ar
    14    17    18   ar
    15    18    19    1
    16    10    11   ar
    17    11    12   ar
    18    12     1    1
    19     1     2   ar
    20     2     3   ar
    21     3     4   ar
    22     4    25    1
    23    25    26    1
    24    25    27    1
    25    25    28    1
    26     4     5   ar
    27     5     6   ar
    28     6    29    1
    29    29    30    1
    30    30    31   am
    31    31    32    2
    32    31    33    1
    33    33    34    1
    34    34    37    1
    35    37    38   ar
    36    38    39   ar
    37    39    43    1
    38    43    44    1
    39    43    45    1
    40    43    46    1
    41    39    40   ar
    42    40    41   ar
    43    41    47    1
    44    47    48    1
    45    47    49    1
    46    47    50    1
    47    41    42   ar
    48    34    35    1
    49    35    36    1
    50    12     7   ar
    51     6     1   ar
    52    35    30    1
    53    18    13   ar
    54    42    37   ar
@<TRIPOS>MOLECULE
*****
 50 54 0 0 0
SMALL
GASTEIGER

@<TRIPOS>ATOM
      1 C         140.9992  142.0925  158.3360 C.ar    1  UNL1        0.0182
      2 C         141.9288  142.7608  157.3667 C.ar    1  UNL1        0.0028
      3 C         141.5958  144.1184  156.8227 C.ar    1  UNL1        0.0231
      4 C         140.3333  144.8079  157.2479 C.ar    1  UNL1        0.1523
      5 N         139.4038  144.1396  158.2172 N.ar    1  UNL1       -0.2440
      6 C         139.7367  142.7819  158.7612 C.ar    1  UNL1        0.0791
      7 C         141.2945  139.5361  157.9792 C.ar    1  UNL1        0.1387
      8 C         141.6275  138.1785  158.5233 C.ar    1  UNL1        0.0369
      9 C         141.9981  138.0197  159.9681 C.ar    1  UNL1        0.0031
     10 C         142.0357  139.2185  160.8688 C.ar    1  UNL1       -0.0001
     11 C         141.7028  140.5761  160.3248 C.ar    1  UNL1        0.0030
     12 C         141.3322  140.7349  158.8800 C.ar    1  UNL1        0.0352
     13 C         142.4063  139.0597  162.3136 C.ar    1  UNL1       -0.0039
     14 C         141.5297  138.2574  163.2290 C.ar    1  UNL1       -0.0003
     15 C         141.9003  138.0986  164.6738 C.ar    1  UNL1        0.0011
     16 C         143.1475  138.7421  165.2032 C.ar    1  UNL1        0.0137
     17 C         144.0241  139.5443  164.2879 C.ar    1  UNL1       -0.0031
     18 C         143.6535  139.7031  162.8431 C.ar    1  UNL1       -0.0218
     19 C         144.5302  140.5054  161.9278 C.3     1  UNL1        0.0310
     20 C         143.5180  138.5833  166.6480 C.2     1  UNL1        0.0729
     21 O         144.4524  137.4870  167.0666 O.co2   1  UNL1       -0.5446
     22 O         142.9543  139.5207  167.6743 O.co2   1  UNL1       -0.5446
     23 C         139.5016  139.5012  156.0993 C.3     1  UNL1        0.2525
     24 O         140.9240  139.6949  156.5344 O.3     1  UNL1       -0.4714
     25 C         140.0004  146.1655  156.7039 C.3     1  UNL1        0.4348
     26 F         139.6675  147.5231  156.1599 F       1  UNL1       -0.1644
     27 F         139.6959  146.6468  158.0915 F       1  UNL1       -0.1644
     28 F         140.3049  145.6841  155.3163 F       1  UNL1       -0.1644
     29 C         138.8072  142.1137  159.7304 C.3     1  UNL1        0.1426
     30 N         138.9830  142.3246  161.2051 N.am    1  UNL1       -0.2380
     31 C         139.2504  143.6359  161.8825 C.2     1  UNL1        0.4055
     32 O         139.3889  144.9666  161.2042 O.2     1  UNL1       -0.2262
     33 O         139.3550  143.3829  163.3574 O.3     1  UNL1       -0.4320
     34 C         139.1522  141.9152  163.5914 C.3     1  UNL1        0.2107
     35 C         138.9223  141.2611  162.2612 C.3     1  UNL1        0.1233
     36 C         138.6752  139.8002  162.0281 C.3     1  UNL1        0.0258
     37 C         139.1753  141.2231  164.9219 C.ar    1  UNL1        0.0189
     38 C         138.5416  139.8723  165.0759 C.ar    1  UNL1        0.0031
     39 C         138.5646  139.1802  166.4064 C.ar    1  UNL1        0.0712
     40 C         139.2215  139.8389  167.5831 C.ar    1  UNL1        0.0077
     41 C         139.8553  141.1898  167.4293 C.ar    1  UNL1        0.0712
     42 C         139.8322  141.8818  166.0986 C.ar    1  UNL1        0.0031
     43 C         137.9309  137.8294  166.5603 C.3     1  UNL1        0.4186
     44 F         137.2971  136.4787  166.7142 F       1  UNL1       -0.1659
     45 F         138.7487  137.3150  165.4129 F       1  UNL1       -0.1659
     46 F         137.1130  138.3439  167.7077 F       1  UNL1       -0.1659
     47 C         140.5122  141.8484  168.6060 C.3     1  UNL1        0.4186
     48 F         141.1690  142.5071  169.7827 F       1  UNL1       -0.1659
     49 F         141.5514  142.4352  167.6974 F       1  UNL1       -0.1659
     50 F         139.4729  141.2616  169.5146 F       1  UNL1       -0.1659
@<TRIPOS>UNITY_ATOM_ATTR
21 1
charge -1
@<TRIPOS>BOND
     1    23    24    1
     2    24     7    1
     3     7     8   ar
     4     8     9   ar
     5     9    10   ar
     6    10    13    1
     7    13    14   ar
     8    14    15   ar
     9    15    16   ar
    10    16    20    1
    11    20    21   ar
    12    20    22   ar
    13    16    17   ar
    14    17    18   ar
    15    18    19    1
    16    10    11   ar
    17    11    12   ar
    18    12     1    1
    19     1     2   ar
    20     2     3   ar
    21     3     4   ar
    22     4    25    1
    23    25    26    1
    24    25    27    1
    25    25    28    1
    26     4     5   ar
    27     5     6   ar
    28     6    29    1
    29    29    30    1
    30    30    31   am
    31    31    32    2
    32    31    33    1
    33    33    34    1
    34    34    37    1
    35    37    38   ar
    36    38    39   ar
    37    39    43    1
    38    43    44    1
    39    43    45    1
    40    43    46    1
    41    39    40   ar
    42    40    41   ar
    43    41    47    1
    44    47    48    1
    45    47    49    1
    46    47    50    1
    47    41    42   ar
    48    34    35    1
    49    35    36    1
    50    12     7   ar
    51     6     1   ar
    52    35    30    1
    53    18    13   ar
    54    42    37   ar
@<TRIPOS>MOLECULE
*****
 50 54 0 0 0
SMALL
GASTEIGER

@<TRIPOS>ATOM
      1 C         141.5821  142.1155  158.6520 C.ar    1  UNL1        0.0182
      2 C         142.5668  143.2224  158.4174 C.ar    1  UNL1        0.0028
      3 C         142.0877  144.5680  157.9592 C.ar    1  UNL1        0.0231
      4 C         140.6237  144.8067  157.7357 C.ar    1  UNL1        0.1523
      5 N         139.6389  143.6998  157.9704 N.ar    1  UNL1       -0.2440
      6 C         140.1182  142.3542  158.4285 C.ar    1  UNL1        0.0791
      7 C         142.3098  139.6814  158.1085 C.ar    1  UNL1        0.1387
      8 C         142.7890  138.3359  158.5667 C.ar    1  UNL1        0.0369
      9 C         143.0197  138.0789  160.0264 C.ar    1  UNL1        0.0031
     10 C         142.7712  139.1675  161.0280 C.ar    1  UNL1       -0.0001
     11 C         142.2920  140.5130  160.5698 C.ar    1  UNL1        0.0030
     12 C         142.0613  140.7699  159.1101 C.ar    1  UNL1        0.0352
     13 C         143.0019  138.9106  162.4877 C.ar    1  UNL1       -0.0039
     14 C         142.2024  137.8602  163.1999 C.ar    1  UNL1       -0.0003
     15 C         142.4331  137.6032  164.6596 C.ar    1  UNL1        0.0011
     16 C         143.4633  138.3968  165.4071 C.ar    1  UNL1        0.0137
     17 C         144.2628  139.4473  164.6950 C.ar    1  UNL1       -0.0031
     18 C         144.0321  139.7042  163.2352 C.ar    1  UNL1       -0.0218
     19 C         144.8317  140.7547  162.5231 C.3     1  UNL1        0.0310
     20 C         143.6940  138.1399  166.8669 C.2     1  UNL1        0.0729
     21 O         143.0190  138.9982  167.8953 O.co2   1  UNL1       -0.5446
     22 O         144.5997  137.0247  167.2981 O.co2   1  UNL1       -0.5446
     23 C         140.7771  139.5469  156.0150 C.3     1  UNL1        0.2525
     24 O         142.0791  139.9383  156.6488 O.3     1  UNL1       -0.4714
     25 C         140.1445  146.1522  157.2776 C.3     1  UNL1        0.4348
     26 F         139.6654  147.4977  156.8195 F       1  UNL1       -0.1644
     27 F         140.6699  145.8706  155.9012 F       1  UNL1       -0.1644
     28 F         139.6192  146.4337  158.6541 F       1  UNL1       -0.1644
     29 C         139.1334  141.2473  158.6631 C.3     1  UNL1        0.1426
     30 N         139.2119  140.4267  159.9164 N.am    1  UNL1       -0.2380
     31 C         139.2369  138.9287  159.9892 C.2     1  UNL1        0.4055
     32 O         139.1879  137.9882  158.8217 O.2     1  UNL1       -0.2262
     33 O         139.3197  138.5362  161.4346 O.3     1  UNL1       -0.4320
     34 C         139.3458  139.7918  162.2551 C.3     1  UNL1        0.2107
     35 C         139.2792  140.9601  161.3167 C.3     1  UNL1        0.1233
     36 C         139.2797  142.4077  161.7096 C.3     1  UNL1        0.0258
     37 C         139.4246  139.8659  163.7511 C.ar    1  UNL1        0.0189
     38 C         140.4045  140.7941  164.4055 C.ar    1  UNL1        0.0031
     39 C         140.4834  140.8682  165.9015 C.ar    1  UNL1        0.0712
     40 C         139.5823  140.0142  166.7433 C.ar    1  UNL1        0.0077
     41 C         138.6023  139.0859  166.0890 C.ar    1  UNL1        0.0712
     42 C         138.5235  139.0118  164.5928 C.ar    1  UNL1        0.0031
     43 C         141.4633  141.7964  166.5558 C.3     1  UNL1        0.4186
     44 F         142.4432  142.7246  167.2102 F       1  UNL1       -0.1659
     45 F         140.7507  141.6260  167.8647 F       1  UNL1       -0.1659
     46 F         142.1760  141.9668  165.2469 F       1  UNL1       -0.1659
     47 C         137.7012  138.2318  166.9307 C.3     1  UNL1        0.4186
     48 F         136.8001  137.3778  167.7725 F       1  UNL1       -0.1659
     49 F         137.6860  139.2928  167.9909 F       1  UNL1       -0.1659
     50 F         137.7164  137.1709  165.8705 F       1  UNL1       -0.1659
@<TRIPOS>UNITY_ATOM_ATTR
21 1
charge -1
@<TRIPOS>BOND
     1    23    24    1
     2    24     7    1
     3     7     8   ar
     4     8     9   ar
     5     9    10   ar
     6    10    13    1
     7    13    14   ar
     8    14    15   ar
     9    15    16   ar
    10    16    20    1
    11    20    21   ar
    12    20    22   ar
    13    16    17   ar
    14    17    18   ar
    15    18    19    1
    16    10    11   ar
    17    11    12   ar
    18    12     1    1
    19     1     2   ar
    20     2     3   ar
    21     3     4   ar
    22     4    25    1
    23    25    26    1
    24    25    27    1
    25    25    28    1
    26     4     5   ar
    27     5     6   ar
    28     6    29    1
    29    29    30    1
    30    30    31   am
    31    31    32    2
    32    31    33    1
    33    33    34    1
    34    34    37    1
    35    37    38   ar
    36    38    39   ar
    37    39    43    1
    38    43    44    1
    39    43    45    1
    40    43    46    1
    41    39    40   ar
    42    40    41   ar
    43    41    47    1
    44    47    48    1
    45    47    49    1
    46    47    50    1
    47    41    42   ar
    48    34    35    1
    49    35    36    1
    50    12     7   ar
    51     6     1   ar
    52    35    30    1
    53    18    13   ar
    54    42    37   ar
@<TRIPOS>MOLECULE
*****
 50 54 0 0 0
SMALL
GASTEIGER

@<TRIPOS>ATOM
      1 C         142.9195  142.4695  158.6563 C.ar    1  UNL1        0.0182
      2 C         144.3774  142.6204  158.3373 C.ar    1  UNL1        0.0028
      3 C         144.9922  141.8083  157.2362 C.ar    1  UNL1        0.0231
      4 C         144.1490  140.8452  156.4541 C.ar    1  UNL1        0.1523
      5 N         142.6911  140.6944  156.7731 N.ar    1  UNL1       -0.2440
      6 C         142.0764  141.5065  157.8742 C.ar    1  UNL1        0.0791
      7 C         141.5086  144.5098  159.4289 C.ar    1  UNL1        0.1387
      8 C         140.8939  145.3219  160.5300 C.ar    1  UNL1        0.0369
      9 C         141.0753  144.9060  161.9598 C.ar    1  UNL1        0.0031
     10 C         141.8714  143.6779  162.2883 C.ar    1  UNL1       -0.0001
     11 C         142.4861  142.8658  161.1872 C.ar    1  UNL1        0.0030
     12 C         142.3047  143.2817  159.7575 C.ar    1  UNL1        0.0352
     13 C         142.0528  143.2620  163.7180 C.ar    1  UNL1       -0.0039
     14 C         140.8609  143.1388  164.6203 C.ar    1  UNL1       -0.0003
     15 C         141.0423  142.7229  166.0500 C.ar    1  UNL1        0.0011
     16 C         142.4156  142.4301  166.5775 C.ar    1  UNL1        0.0137
     17 C         143.6075  142.5532  165.6752 C.ar    1  UNL1       -0.0031
     18 C         143.4261  142.9692  164.2455 C.ar    1  UNL1       -0.0218
     19 C         144.6181  143.0923  163.3432 C.3     1  UNL1        0.0310
     20 C         142.5970  142.0141  168.0072 C.2     1  UNL1        0.0729
     21 O         141.7107  140.9588  168.5995 O.co2   1  UNL1       -0.5446
     22 O         143.6646  142.6534  168.8446 O.co2   1  UNL1       -0.5446
     23 C         142.2536  145.9350  157.3884 C.3     1  UNL1        0.2525
     24 O         141.3272  144.9258  157.9992 O.3     1  UNL1       -0.4714
     25 C         144.7638  140.0331  155.3530 C.3     1  UNL1        0.4348
     26 F         145.3786  139.2210  154.2519 F       1  UNL1       -0.1644
     27 F         146.1187  140.5626  155.7189 F       1  UNL1       -0.1644
     28 F         143.4089  139.5036  154.9871 F       1  UNL1       -0.1644
     29 C         140.6184  141.3557  158.1932 C.3     1  UNL1        0.1426
     30 N         140.1701  141.2497  159.6208 N.am    1  UNL1       -0.2380
     31 C         139.0685  142.0421  160.2600 C.2     1  UNL1        0.4055
     32 O         138.2219  143.0796  159.5840 O.2     1  UNL1       -0.2262
     33 O         138.9622  141.6149  161.6940 O.3     1  UNL1       -0.4320
     34 C         139.9981  140.5585  161.9409 C.3     1  UNL1        0.2107
     35 C         140.7446  140.3328  160.6596 C.3     1  UNL1        0.1233
     36 C         141.8683  139.3609  160.4533 C.3     1  UNL1        0.0258
     37 C         140.2443  139.8519  163.2409 C.ar    1  UNL1        0.0189
     38 C         139.0862  139.3740  164.0659 C.ar    1  UNL1        0.0031
     39 C         139.3324  138.6674  165.3659 C.ar    1  UNL1        0.0712
     40 C         140.7367  138.4386  165.8410 C.ar    1  UNL1        0.0077
     41 C         141.8948  138.9164  165.0160 C.ar    1  UNL1        0.0712
     42 C         141.6485  139.6231  163.7160 C.ar    1  UNL1        0.0031
     43 C         138.1743  138.1896  166.1908 C.3     1  UNL1        0.4186
     44 F         137.0163  137.7118  167.0158 F       1  UNL1       -0.1659
     45 F         138.4623  136.7769  165.7768 F       1  UNL1       -0.1659
     46 F         137.8863  139.6024  166.6048 F       1  UNL1       -0.1659
     47 C         143.2991  138.6876  165.4911 C.3     1  UNL1        0.4186
     48 F         144.7033  138.4588  165.9662 F       1  UNL1       -0.1659
     49 F         142.8063  138.5997  166.9051 F       1  UNL1       -0.1659
     50 F         143.7918  138.7755  164.0771 F       1  UNL1       -0.1659
@<TRIPOS>UNITY_ATOM_ATTR
21 1
charge -1
@<TRIPOS>BOND
     1    23    24    1
     2    24     7    1
     3     7     8   ar
     4     8     9   ar
     5     9    10   ar
     6    10    13    1
     7    13    14   ar
     8    14    15   ar
     9    15    16   ar
    10    16    20    1
    11    20    21   ar
    12    20    22   ar
    13    16    17   ar
    14    17    18   ar
    15    18    19    1
    16    10    11   ar
    17    11    12   ar
    18    12     1    1
    19     1     2   ar
    20     2     3   ar
    21     3     4   ar
    22     4    25    1
    23    25    26    1
    24    25    27    1
    25    25    28    1
    26     4     5   ar
    27     5     6   ar
    28     6    29    1
    29    29    30    1
    30    30    31   am
    31    31    32    2
    32    31    33    1
    33    33    34    1
    34    34    37    1
    35    37    38   ar
    36    38    39   ar
    37    39    43    1
    38    43    44    1
    39    43    45    1
    40    43    46    1
    41    39    40   ar
    42    40    41   ar
    43    41    47    1
    44    47    48    1
    45    47    49    1
    46    47    50    1
    47    41    42   ar
    48    34    35    1
    49    35    36    1
    50    12     7   ar
    51     6     1   ar
    52    35    30    1
    53    18    13   ar
    54    42    37   ar
