@<TRIPOS>MOLECULE
*****
 36 39 0 0 0
SMALL
GASTEIGER

@<TRIPOS>ATOM
      1 C         142.1578  138.8340  158.4121 C.3     1  UNL1        0.0758
      2 C         143.0465  138.5803  159.5936 C.3     1  UNL1        0.0370
      3 C         143.6690  139.7324  160.3250 C.3     1  UNL1        0.0741
      4 N         143.4029  141.1383  159.8749 N.3     1  UNL1       -0.2688
      5 C         142.5143  141.3921  158.6935 C.3     1  UNL1        0.0741
      6 C         141.8917  140.2399  157.9620 C.3     1  UNL1        0.0370
      7 O         143.7681  137.2791  156.4148 O.2     1  UNL1       -0.2528
      8 C         142.3404  136.9044  156.6821 C.2     1  UNL1        0.3010
      9 N         141.7179  135.7522  155.9506 N.am    1  UNL1       -0.2849
     10 N         141.5353  137.6818  157.6807 N.am    1  UNL1       -0.2905
     11 H         140.7809  135.5062  156.1260 H       1  UNL1        0.1513
     12 H         140.5983  137.4359  157.8561 H       1  UNL1        0.1509
     13 C         142.5230  134.9748  154.9520 C.3     1  UNL1        0.1177
     14 C         143.2339  133.7228  155.3732 C.ar    1  UNL1       -0.0003
     15 C         143.1128  132.4772  154.5462 C.ar    1  UNL1       -0.0025
     16 C         143.8236  131.2253  154.9674 C.ar    1  UNL1        0.0020
     17 C         144.6555  131.2190  156.2156 C.ar    1  UNL1        0.0296
     18 C         144.7766  132.4646  157.0425 C.ar    1  UNL1        0.1399
     19 F         145.6085  132.4582  158.2907 F       1  UNL1       -0.2042
     20 C         144.0658  133.7164  156.6213 C.ar    1  UNL1        0.0270
     21 C         144.0255  142.2905  160.6063 C.3     1  UNL1        0.1007
     22 C         144.0905  142.2805  162.1049 C.ar    1  UNL1        0.0129
     23 C         145.3314  142.1226  162.9326 C.ar    1  UNL1        0.0176
     24 C         144.9338  142.1712  164.3781 C.ar    1  UNL1        0.0799
     25 N         143.4470  142.3592  164.4438 N.ar    1  UNL1       -0.3038
     26 C         142.9259  142.4267  163.0389 C.ar    1  UNL1        0.0772
     27 C         142.6257  142.4616  165.6948 C.ar    1  UNL1        0.0640
     28 C         141.1768  142.8408  165.6117 C.ar    1  UNL1        0.0175
     29 C         140.3555  142.9432  166.8627 C.ar    1  UNL1        0.0053
     30 C         140.9831  142.6665  168.1967 C.ar    1  UNL1        0.0715
     31 C         142.4321  142.2873  168.2798 C.ar    1  UNL1        0.0053
     32 C         143.2534  142.1849  167.0288 C.ar    1  UNL1        0.0175
     33 C         140.1618  142.7689  169.4477 C.3     1  UNL1        0.4186
     34 F         139.3406  142.8714  170.6986 F       1  UNL1       -0.1659
     35 F         140.6584  144.1685  169.6591 F       1  UNL1       -0.1659
     36 F         139.6653  141.3694  169.2363 F       1  UNL1       -0.1659
@<TRIPOS>BOND
     1     7     8    2
     2     8     9   am
     3     9    13    1
     4    13    14    1
     5    14    15   ar
     6    15    16   ar
     7    16    17   ar
     8    17    18   ar
     9    18    19    1
    10    18    20   ar
    11     8    10   am
    12    10     1    1
    13     1     2    1
    14     2     3    1
    15     3     4    1
    16     4    21    1
    17    21    22    1
    18    22    23   ar
    19    23    24   ar
    20    24    25   ar
    21    25    27    1
    22    27    28   ar
    23    28    29   ar
    24    29    30   ar
    25    30    33    1
    26    33    34    1
    27    33    35    1
    28    33    36    1
    29    30    31   ar
    30    31    32   ar
    31    25    26   ar
    32     4     5    1
    33     5     6    1
    34    20    14   ar
    35     6     1    1
    36    26    22   ar
    37    32    27   ar
    38     9    11    1
    39    10    12    1
@<TRIPOS>MOLECULE
*****
 36 39 0 0 0
SMALL
GASTEIGER

@<TRIPOS>ATOM
      1 C         142.7666  138.8705  158.8987 C.3     1  UNL1        0.0758
      2 C         143.2232  138.2286  160.1753 C.3     1  UNL1        0.0370
      3 C         142.2317  137.9273  161.2598 C.3     1  UNL1        0.0741
      4 N         140.7836  138.2679  161.0677 N.3     1  UNL1       -0.2688
      5 C         140.3269  138.9097  159.7912 C.3     1  UNL1        0.0741
      6 C         141.3185  139.2110  158.7067 C.3     1  UNL1        0.0370
      7 O         144.2897  141.4547  158.9346 O.2     1  UNL1       -0.2528
      8 C         144.5197  140.4639  157.8322 C.2     1  UNL1        0.3010
      9 N         145.5112  140.7652  156.7477 N.am    1  UNL1       -0.2849
     10 N         143.7581  139.1717  157.8143 N.am    1  UNL1       -0.2905
     11 H         145.6622  140.1149  156.0242 H       1  UNL1        0.1513
     12 H         143.9091  138.5214  157.0907 H       1  UNL1        0.1509
     13 C         146.2728  142.0573  156.7657 C.3     1  UNL1        0.1177
     14 C         147.2655  142.3580  155.6821 C.ar    1  UNL1       -0.0003
     15 C         146.9181  143.3322  154.5958 C.ar    1  UNL1       -0.0025
     16 C         147.9108  143.6328  153.5123 C.ar    1  UNL1        0.0020
     17 C         149.2510  142.9591  153.5150 C.ar    1  UNL1        0.0296
     18 C         149.5985  141.9849  154.6013 C.ar    1  UNL1        0.1399
     19 F         150.9387  141.3112  154.6040 F       1  UNL1       -0.2042
     20 C         148.6057  141.6843  155.6848 C.ar    1  UNL1        0.0270
     21 C         139.7920  137.9666  162.1522 C.3     1  UNL1        0.1007
     22 C         139.6108  138.9265  163.2905 C.ar    1  UNL1        0.0129
     23 C         138.3452  139.6525  163.6387 C.ar    1  UNL1        0.0176
     24 C         138.6156  140.5036  164.8439 C.ar    1  UNL1        0.0799
     25 N         140.0483  140.3037  165.2406 N.ar    1  UNL1       -0.3038
     26 C         140.6634  139.3290  164.2806 C.ar    1  UNL1        0.0772
     27 C         140.7438  140.9627  166.3947 C.ar    1  UNL1        0.0640
     28 C         142.1391  141.4876  166.2288 C.ar    1  UNL1        0.0175
     29 C         142.8346  142.1466  167.3829 C.ar    1  UNL1        0.0053
     30 C         142.1348  142.2807  168.7029 C.ar    1  UNL1        0.0715
     31 C         140.7395  141.7558  168.8688 C.ar    1  UNL1        0.0053
     32 C         140.0440  141.0968  167.7147 C.ar    1  UNL1        0.0175
     33 C         142.8303  142.9398  169.8570 C.3     1  UNL1        0.4186
     34 F         143.5258  143.5988  171.0110 F       1  UNL1       -0.1659
     35 F         141.5841  143.7157  170.1649 F       1  UNL1       -0.1659
     36 F         144.0765  142.1638  169.5490 F       1  UNL1       -0.1659
@<TRIPOS>BOND
     1     7     8    2
     2     8     9   am
     3     9    13    1
     4    13    14    1
     5    14    15   ar
     6    15    16   ar
     7    16    17   ar
     8    17    18   ar
     9    18    19    1
    10    18    20   ar
    11     8    10   am
    12    10     1    1
    13     1     2    1
    14     2     3    1
    15     3     4    1
    16     4    21    1
    17    21    22    1
    18    22    23   ar
    19    23    24   ar
    20    24    25   ar
    21    25    27    1
    22    27    28   ar
    23    28    29   ar
    24    29    30   ar
    25    30    33    1
    26    33    34    1
    27    33    35    1
    28    33    36    1
    29    30    31   ar
    30    31    32   ar
    31    25    26   ar
    32     4     5    1
    33     5     6    1
    34    20    14   ar
    35     6     1    1
    36    26    22   ar
    37    32    27   ar
    38     9    11    1
    39    10    12    1
@<TRIPOS>MOLECULE
*****
 36 39 0 0 0
SMALL
GASTEIGER

@<TRIPOS>ATOM
      1 C         142.5929  138.8935  158.5714 C.3     1  UNL1        0.0758
      2 C         141.1943  139.1437  158.0900 C.3     1  UNL1        0.0370
      3 C         140.0313  138.8997  159.0052 C.3     1  UNL1        0.0741
      4 N         140.2666  138.4055  160.4018 N.3     1  UNL1       -0.2688
      5 C         141.6651  138.1554  160.8832 C.3     1  UNL1        0.0741
      6 C         142.8282  138.3994  159.9680 C.3     1  UNL1        0.0370
      7 O         143.9863  141.5501  158.5922 O.2     1  UNL1       -0.2528
      8 C         144.4526  140.4658  157.6666 C.2     1  UNL1        0.3010
      9 N         145.6158  140.7099  156.7513 N.am    1  UNL1       -0.2849
     10 N         143.7559  139.1375  157.6562 N.am    1  UNL1       -0.2905
     11 H         145.9219  139.9982  156.1438 H       1  UNL1        0.1513
     12 H         144.0620  138.4259  157.0486 H       1  UNL1        0.1509
     13 C         146.3125  142.0382  156.7617 C.3     1  UNL1        0.1177
     14 C         147.2291  142.4132  155.6351 C.ar    1  UNL1       -0.0003
     15 C         148.5107  141.6615  155.4290 C.ar    1  UNL1       -0.0025
     16 C         149.4272  142.0365  154.3024 C.ar    1  UNL1        0.0020
     17 C         149.0622  143.1632  153.3819 C.ar    1  UNL1        0.0296
     18 C         147.7807  143.9150  153.5880 C.ar    1  UNL1        0.1399
     19 F         147.4157  145.0417  152.6675 F       1  UNL1       -0.2042
     20 C         146.8641  143.5399  154.7146 C.ar    1  UNL1        0.0270
     21 C         139.1035  138.1615  161.3170 C.3     1  UNL1        0.1007
     22 C         138.8321  139.1035  162.4524 C.ar    1  UNL1        0.0129
     23 C         137.7962  140.1883  162.4697 C.ar    1  UNL1        0.0176
     24 C         137.8728  140.8812  163.7978 C.ar    1  UNL1        0.0799
     25 N         138.9560  140.2248  164.6014 N.ar    1  UNL1       -0.3038
     26 C         139.5489  139.1261  163.7699 C.ar    1  UNL1        0.0772
     27 C         139.3731  140.6010  165.9923 C.ar    1  UNL1        0.0640
     28 C         140.0919  141.8949  166.2356 C.ar    1  UNL1        0.0175
     29 C         140.5089  142.2710  167.6264 C.ar    1  UNL1        0.0053
     30 C         140.2073  141.3533  168.7740 C.ar    1  UNL1        0.0715
     31 C         139.4885  140.0595  168.5307 C.ar    1  UNL1        0.0053
     32 C         139.0714  139.6833  167.1398 C.ar    1  UNL1        0.0175
     33 C         140.6243  141.7295  170.1648 C.3     1  UNL1        0.4186
     34 F         141.0414  142.1057  171.5557 F       1  UNL1       -0.1659
     35 F         139.4201  142.6156  170.2863 F       1  UNL1       -0.1659
     36 F         141.8286  140.8435  170.0434 F       1  UNL1       -0.1659
@<TRIPOS>BOND
     1     7     8    2
     2     8     9   am
     3     9    13    1
     4    13    14    1
     5    14    15   ar
     6    15    16   ar
     7    16    17   ar
     8    17    18   ar
     9    18    19    1
    10    18    20   ar
    11     8    10   am
    12    10     1    1
    13     1     2    1
    14     2     3    1
    15     3     4    1
    16     4    21    1
    17    21    22    1
    18    22    23   ar
    19    23    24   ar
    20    24    25   ar
    21    25    27    1
    22    27    28   ar
    23    28    29   ar
    24    29    30   ar
    25    30    33    1
    26    33    34    1
    27    33    35    1
    28    33    36    1
    29    30    31   ar
    30    31    32   ar
    31    25    26   ar
    32     4     5    1
    33     5     6    1
    34    20    14   ar
    35     6     1    1
    36    26    22   ar
    37    32    27   ar
    38     9    11    1
    39    10    12    1
@<TRIPOS>MOLECULE
*****
 36 39 0 0 0
SMALL
GASTEIGER

@<TRIPOS>ATOM
      1 C         139.9807  142.9018  158.4428 C.3     1  UNL1        0.0758
      2 C         139.2163  143.3409  159.6565 C.3     1  UNL1        0.0370
      3 C         138.3913  142.3496  160.4225 C.3     1  UNL1        0.0741
      4 N         138.3306  140.9193  159.9749 N.3     1  UNL1       -0.2688
      5 C         139.0949  140.4802  158.7612 C.3     1  UNL1        0.0741
      6 C         139.9199  141.4714  157.9951 C.3     1  UNL1        0.0370
      7 O         138.7663  144.4131  156.1535 O.2     1  UNL1       -0.2528
      8 C         140.1985  144.6487  156.5322 C.2     1  UNL1        0.3010
      9 N         141.0234  145.6400  155.7661 N.am    1  UNL1       -0.2849
     10 N         140.8056  143.8930  157.6768 N.am    1  UNL1       -0.2905
     11 H         141.9634  145.7946  156.0146 H       1  UNL1        0.1513
     12 H         141.7456  144.0477  157.9253 H       1  UNL1        0.1509
     13 C         140.4163  146.3956  154.6214 C.3     1  UNL1        0.1177
     14 C         139.8564  147.7696  154.8426 C.ar    1  UNL1       -0.0003
     15 C         140.0768  148.8431  153.8183 C.ar    1  UNL1       -0.0025
     16 C         139.5170  150.2170  154.0395 C.ar    1  UNL1        0.0020
     17 C         138.7368  150.5174  155.2849 C.ar    1  UNL1        0.0296
     18 C         138.5165  149.4440  156.3092 C.ar    1  UNL1        0.1399
     19 F         137.7363  149.7444  157.5546 F       1  UNL1       -0.2042
     20 C         139.0763  148.0701  156.0880 C.ar    1  UNL1        0.0270
     21 C         137.5056  139.9280  160.7408 C.3     1  UNL1        0.1007
     22 C         138.0351  139.3356  162.0132 C.ar    1  UNL1        0.0129
     23 C         138.4928  137.9198  162.2030 C.ar    1  UNL1        0.0176
     24 C         138.9404  137.7642  163.6261 C.ar    1  UNL1        0.0799
     25 N         138.7593  139.0839  164.3160 N.ar    1  UNL1       -0.3038
     26 C         138.1998  140.0550  163.3191 C.ar    1  UNL1        0.0772
     27 C         139.0812  139.3803  165.7507 C.ar    1  UNL1        0.0640
     28 C         140.4113  139.9708  166.1144 C.ar    1  UNL1        0.0175
     29 C         140.7332  140.2672  167.5491 C.ar    1  UNL1        0.0053
     30 C         139.7250  139.9731  168.6202 C.ar    1  UNL1        0.0715
     31 C         138.3950  139.3826  168.2565 C.ar    1  UNL1        0.0053
     32 C         138.0731  139.0862  166.8218 C.ar    1  UNL1        0.0175
     33 C         140.0470  140.2695  170.0549 C.3     1  UNL1        0.4186
     34 F         140.3689  140.5659  171.4896 F       1  UNL1       -0.1659
     35 F         141.2929  139.4414  169.9464 F       1  UNL1       -0.1659
     36 F         138.8010  141.0976  170.1634 F       1  UNL1       -0.1659
@<TRIPOS>BOND
     1     7     8    2
     2     8     9   am
     3     9    13    1
     4    13    14    1
     5    14    15   ar
     6    15    16   ar
     7    16    17   ar
     8    17    18   ar
     9    18    19    1
    10    18    20   ar
    11     8    10   am
    12    10     1    1
    13     1     2    1
    14     2     3    1
    15     3     4    1
    16     4    21    1
    17    21    22    1
    18    22    23   ar
    19    23    24   ar
    20    24    25   ar
    21    25    27    1
    22    27    28   ar
    23    28    29   ar
    24    29    30   ar
    25    30    33    1
    26    33    34    1
    27    33    35    1
    28    33    36    1
    29    30    31   ar
    30    31    32   ar
    31    25    26   ar
    32     4     5    1
    33     5     6    1
    34    20    14   ar
    35     6     1    1
    36    26    22   ar
    37    32    27   ar
    38     9    11    1
    39    10    12    1
@<TRIPOS>MOLECULE
*****
 36 39 0 0 0
SMALL
GASTEIGER

@<TRIPOS>ATOM
      1 C         139.9673  138.4672  157.8014 C.3     1  UNL1        0.0758
      2 C         140.2269  139.8248  157.2186 C.3     1  UNL1        0.0370
      3 C         140.2943  141.0255  158.1152 C.3     1  UNL1        0.0741
      4 N         140.1021  140.8686  159.5945 N.3     1  UNL1       -0.2688
      5 C         139.8425  139.5111  160.1773 C.3     1  UNL1        0.0741
      6 C         139.7751  138.3103  159.2808 C.3     1  UNL1        0.0370
      7 O         142.4940  137.1225  156.9030 O.2     1  UNL1       -0.2528
      8 C         141.1633  136.5942  156.4557 C.2     1  UNL1        0.3010
      9 N         141.0960  135.3934  155.5591 N.am    1  UNL1       -0.2849
     10 N         139.8999  137.2665  156.9049 N.am    1  UNL1       -0.2905
     11 H         140.2226  135.0467  155.2655 H       1  UNL1        0.1513
     12 H         139.0266  136.9198  156.6113 H       1  UNL1        0.1509
     13 C         142.3593  134.7211  155.1098 C.3     1  UNL1        0.1177
     14 C         142.8884  133.5377  155.8647 C.ar    1  UNL1       -0.0003
     15 C         142.2579  132.1890  155.6827 C.ar    1  UNL1       -0.0025
     16 C         142.7870  131.0057  156.4375 C.ar    1  UNL1        0.0020
     17 C         143.9468  131.1712  157.3743 C.ar    1  UNL1        0.0296
     18 C         144.5773  132.5200  157.5563 C.ar    1  UNL1        0.1399
     19 F         145.7371  132.6855  158.4931 F       1  UNL1       -0.2042
     20 C         144.0482  133.7032  156.8015 C.ar    1  UNL1        0.0270
     21 C         140.1695  142.0693  160.4911 C.3     1  UNL1        0.1007
     22 C         139.5473  142.0226  161.8552 C.ar    1  UNL1        0.0129
     23 C         138.1096  142.3025  162.1786 C.ar    1  UNL1        0.0176
     24 C         137.9275  142.1407  163.6587 C.ar    1  UNL1        0.0799
     25 N         139.2526  141.7607  164.2501 N.ar    1  UNL1       -0.3038
     26 C         140.2537  141.6877  163.1354 C.ar    1  UNL1        0.0772
     27 C         139.5282  141.4996  165.7012 C.ar    1  UNL1        0.0640
     28 C         139.1398  140.1867  166.3139 C.ar    1  UNL1        0.0175
     29 C         139.4154  139.9256  167.7651 C.ar    1  UNL1        0.0053
     30 C         140.0794  140.9774  168.6035 C.ar    1  UNL1        0.0715
     31 C         140.4678  142.2903  167.9908 C.ar    1  UNL1        0.0053
     32 C         140.1922  142.5514  166.5396 C.ar    1  UNL1        0.0175
     33 C         140.3550  140.7162  170.0546 C.3     1  UNL1        0.4186
     34 F         140.6306  140.4551  171.5058 F       1  UNL1       -0.1659
     35 F         139.6904  142.0120  170.4140 F       1  UNL1       -0.1659
     36 F         141.0196  139.4205  169.6952 F       1  UNL1       -0.1659
@<TRIPOS>BOND
     1     7     8    2
     2     8     9   am
     3     9    13    1
     4    13    14    1
     5    14    15   ar
     6    15    16   ar
     7    16    17   ar
     8    17    18   ar
     9    18    19    1
    10    18    20   ar
    11     8    10   am
    12    10     1    1
    13     1     2    1
    14     2     3    1
    15     3     4    1
    16     4    21    1
    17    21    22    1
    18    22    23   ar
    19    23    24   ar
    20    24    25   ar
    21    25    27    1
    22    27    28   ar
    23    28    29   ar
    24    29    30   ar
    25    30    33    1
    26    33    34    1
    27    33    35    1
    28    33    36    1
    29    30    31   ar
    30    31    32   ar
    31    25    26   ar
    32     4     5    1
    33     5     6    1
    34    20    14   ar
    35     6     1    1
    36    26    22   ar
    37    32    27   ar
    38     9    11    1
    39    10    12    1
@<TRIPOS>MOLECULE
*****
 36 39 0 0 0
SMALL
GASTEIGER

@<TRIPOS>ATOM
      1 C         138.7622  139.8817  159.2874 C.3     1  UNL1        0.0758
      2 C         138.1449  139.1665  160.4525 C.3     1  UNL1        0.0370
      3 C         137.6584  139.9454  161.6385 C.3     1  UNL1        0.0741
      4 N         137.7892  141.4395  161.6594 N.3     1  UNL1       -0.2688
      5 C         138.4065  142.1548  160.4943 C.3     1  UNL1        0.0741
      6 C         138.8930  141.3758  159.3083 C.3     1  UNL1        0.0370
      7 O         141.3600  138.3888  159.4365 O.2     1  UNL1       -0.2528
      8 C         140.5476  138.3563  158.1759 C.2     1  UNL1        0.3010
      9 N         141.0341  137.5773  156.9899 N.am    1  UNL1       -0.2849
     10 N         139.2487  139.1028  158.1014 N.am    1  UNL1       -0.2905
     11 H         140.5009  137.5560  156.1626 H       1  UNL1        0.1513
     12 H         138.7155  139.0814  157.2741 H       1  UNL1        0.1509
     13 C         142.3330  136.8309  157.0645 C.3     1  UNL1        0.1177
     14 C         142.4794  135.5090  156.3706 C.ar    1  UNL1       -0.0003
     15 C         141.4453  135.0637  155.3795 C.ar    1  UNL1       -0.0025
     16 C         141.5916  133.7419  154.6858 C.ar    1  UNL1        0.0020
     17 C         142.7721  132.8654  154.9831 C.ar    1  UNL1        0.0296
     18 C         143.8061  133.3107  155.9742 C.ar    1  UNL1        0.1399
     19 F         144.9866  132.4343  156.2715 F       1  UNL1       -0.2042
     20 C         143.6598  134.6325  156.6680 C.ar    1  UNL1        0.0270
     21 C         137.3027  142.2185  162.8453 C.3     1  UNL1        0.1007
     22 C         138.2391  142.5257  163.9763 C.ar    1  UNL1        0.0129
     23 C         138.7049  143.8904  164.3893 C.ar    1  UNL1        0.0176
     24 C         139.6277  143.7303  165.5610 C.ar    1  UNL1        0.0799
     25 N         139.7322  142.2666  165.8721 N.ar    1  UNL1       -0.3038
     26 C         138.8740  141.5221  164.8926 C.ar    1  UNL1        0.0772
     27 C         140.5512  141.6548  166.9698 C.ar    1  UNL1        0.0640
     28 C         141.5678  140.5997  166.6482 C.ar    1  UNL1        0.0175
     29 C         142.3867  139.9880  167.7459 C.ar    1  UNL1        0.0053
     30 C         142.1890  140.4312  169.1653 C.ar    1  UNL1        0.0715
     31 C         141.1725  141.4862  169.4869 C.ar    1  UNL1        0.0053
     32 C         140.3535  142.0980  168.3891 C.ar    1  UNL1        0.0175
     33 C         143.0080  139.8194  170.2630 C.3     1  UNL1        0.4186
     34 F         143.8269  139.2076  171.3607 F       1  UNL1       -0.1659
     35 F         142.1615  138.5825  170.2051 F       1  UNL1       -0.1659
     36 F         143.8544  141.0564  170.3209 F       1  UNL1       -0.1659
@<TRIPOS>BOND
     1     7     8    2
     2     8     9   am
     3     9    13    1
     4    13    14    1
     5    14    15   ar
     6    15    16   ar
     7    16    17   ar
     8    17    18   ar
     9    18    19    1
    10    18    20   ar
    11     8    10   am
    12    10     1    1
    13     1     2    1
    14     2     3    1
    15     3     4    1
    16     4    21    1
    17    21    22    1
    18    22    23   ar
    19    23    24   ar
    20    24    25   ar
    21    25    27    1
    22    27    28   ar
    23    28    29   ar
    24    29    30   ar
    25    30    33    1
    26    33    34    1
    27    33    35    1
    28    33    36    1
    29    30    31   ar
    30    31    32   ar
    31    25    26   ar
    32     4     5    1
    33     5     6    1
    34    20    14   ar
    35     6     1    1
    36    26    22   ar
    37    32    27   ar
    38     9    11    1
    39    10    12    1
@<TRIPOS>MOLECULE
*****
 36 39 0 0 0
SMALL
GASTEIGER

@<TRIPOS>ATOM
      1 C         141.1364  144.1471  158.7236 C.3     1  UNL1        0.0758
      2 C         141.2324  144.7395  160.0984 C.3     1  UNL1        0.0370
      3 C         142.3520  144.3373  161.0119 C.3     1  UNL1        0.0741
      4 N         143.3758  143.3427  160.5507 N.3     1  UNL1       -0.2688
      5 C         143.2798  142.7503  159.1760 C.3     1  UNL1        0.0741
      6 C         142.1601  143.1525  158.2624 C.3     1  UNL1        0.0370
      7 O         141.6244  146.1505  156.5446 O.2     1  UNL1       -0.2528
      8 C         140.2607  145.5510  156.7207 C.2     1  UNL1        0.3010
      9 N         139.1410  145.9533  155.8071 N.am    1  UNL1       -0.2849
     10 N         140.0167  144.5493  157.8102 N.am    1  UNL1       -0.2905
     11 H         138.2460  145.5598  155.9226 H       1  UNL1        0.1513
     12 H         139.1216  144.1559  157.9257 H       1  UNL1        0.1509
     13 C         139.3850  146.9549  154.7176 C.3     1  UNL1        0.1177
     14 C         139.2024  148.4187  154.9899 C.ar    1  UNL1       -0.0003
     15 C         138.5227  148.8683  156.2492 C.ar    1  UNL1       -0.0025
     16 C         138.3401  150.3320  156.5214 C.ar    1  UNL1        0.0020
     17 C         138.8371  151.3462  155.5343 C.ar    1  UNL1        0.0296
     18 C         139.5168  150.8966  154.2750 C.ar    1  UNL1        0.1399
     19 F         140.0139  151.9108  153.2879 F       1  UNL1       -0.2042
     20 C         139.6994  149.4329  154.0028 C.ar    1  UNL1        0.0270
     21 C         144.4954  142.9405  161.4642 C.3     1  UNL1        0.1007
     22 C         144.1916  142.3974  162.8291 C.ar    1  UNL1        0.0129
     23 C         144.7792  141.1578  163.4357 C.ar    1  UNL1        0.0176
     24 C         144.1976  140.9930  164.8085 C.ar    1  UNL1        0.0799
     25 N         143.2505  142.1308  165.0503 N.ar    1  UNL1       -0.3038
     26 C         143.2468  142.9988  163.8270 C.ar    1  UNL1        0.0772
     27 C         142.4480  142.3603  166.2966 C.ar    1  UNL1        0.0640
     28 C         141.0110  142.7786  166.1969 C.ar    1  UNL1        0.0175
     29 C         140.2085  143.0081  167.4432 C.ar    1  UNL1        0.0053
     30 C         140.8430  142.8193  168.7893 C.ar    1  UNL1        0.0715
     31 C         142.2801  142.4010  168.8890 C.ar    1  UNL1        0.0053
     32 C         143.0825  142.1715  167.6426 C.ar    1  UNL1        0.0175
     33 C         140.0405  143.0488  170.0356 C.3     1  UNL1        0.4186
     34 F         139.2381  143.2783  171.2819 F       1  UNL1       -0.1659
     35 F         140.3460  144.5155  169.9621 F       1  UNL1       -0.1659
     36 F         139.7351  141.5821  170.1090 F       1  UNL1       -0.1659
@<TRIPOS>BOND
     1     7     8    2
     2     8     9   am
     3     9    13    1
     4    13    14    1
     5    14    15   ar
     6    15    16   ar
     7    16    17   ar
     8    17    18   ar
     9    18    19    1
    10    18    20   ar
    11     8    10   am
    12    10     1    1
    13     1     2    1
    14     2     3    1
    15     3     4    1
    16     4    21    1
    17    21    22    1
    18    22    23   ar
    19    23    24   ar
    20    24    25   ar
    21    25    27    1
    22    27    28   ar
    23    28    29   ar
    24    29    30   ar
    25    30    33    1
    26    33    34    1
    27    33    35    1
    28    33    36    1
    29    30    31   ar
    30    31    32   ar
    31    25    26   ar
    32     4     5    1
    33     5     6    1
    34    20    14   ar
    35     6     1    1
    36    26    22   ar
    37    32    27   ar
    38     9    11    1
    39    10    12    1
@<TRIPOS>MOLECULE
*****
 36 39 0 0 0
SMALL
GASTEIGER

@<TRIPOS>ATOM
      1 C         141.2956  143.8787  158.9148 C.3     1  UNL1        0.0758
      2 C         140.1824  142.8750  158.9739 C.3     1  UNL1        0.0370
      3 C         139.2224  142.8867  160.1263 C.3     1  UNL1        0.0741
      4 N         139.3755  143.9022  161.2197 N.3     1  UNL1       -0.2688
      5 C         140.4886  144.9059  161.1607 C.3     1  UNL1        0.0741
      6 C         141.4487  144.8941  160.0082 C.3     1  UNL1        0.0370
      7 O         143.8538  142.3239  159.1096 O.2     1  UNL1       -0.2528
      8 C         143.5348  143.0896  157.8598 C.2     1  UNL1        0.3010
      9 N         144.4949  143.0778  156.7073 N.am    1  UNL1       -0.2849
     10 N         142.2557  143.8669  157.7624 N.am    1  UNL1       -0.2905
     11 H         144.2855  143.5803  155.8870 H       1  UNL1        0.1513
     12 H         142.0463  144.3695  156.9421 H       1  UNL1        0.1509
     13 C         145.7740  142.3004  156.8047 C.3     1  UNL1        0.1177
     14 C         146.8378  142.4728  155.7613 C.ar    1  UNL1       -0.0003
     15 C         146.5351  143.2236  154.4985 C.ar    1  UNL1       -0.0025
     16 C         147.5988  143.3960  153.4552 C.ar    1  UNL1        0.0020
     17 C         148.9653  142.8176  153.6746 C.ar    1  UNL1        0.0296
     18 C         149.2680  142.0668  154.9373 C.ar    1  UNL1        0.1399
     19 F         150.6345  141.4883  155.1567 F       1  UNL1       -0.2042
     20 C         148.2043  141.8944  155.9807 C.ar    1  UNL1        0.0270
     21 C         138.4154  143.9139  162.3721 C.3     1  UNL1        0.1007
     22 C         138.5478  142.8993  163.4690 C.ar    1  UNL1        0.0129
     23 C         137.6091  141.7598  163.7340 C.ar    1  UNL1        0.0176
     24 C         138.1233  141.0023  164.9222 C.ar    1  UNL1        0.0799
     25 N         139.3799  141.6738  165.3916 N.ar    1  UNL1       -0.3038
     26 C         139.6422  142.8461  164.4935 C.ar    1  UNL1        0.0772
     27 C         140.2256  141.2476  166.5549 C.ar    1  UNL1        0.0640
     28 C         139.6469  140.3619  167.6182 C.ar    1  UNL1        0.0175
     29 C         140.4926  139.9358  168.7814 C.ar    1  UNL1        0.0053
     30 C         141.9170  140.3953  168.8814 C.ar    1  UNL1        0.0715
     31 C         142.4957  141.2810  167.8180 C.ar    1  UNL1        0.0053
     32 C         141.6500  141.7072  166.6548 C.ar    1  UNL1        0.0175
     33 C         142.7627  139.9692  170.0446 C.3     1  UNL1        0.4186
     34 F         143.6084  139.5430  171.2078 F       1  UNL1       -0.1659
     35 F         141.8870  138.7672  170.2409 F       1  UNL1       -0.1659
     36 F         143.6384  141.1711  169.8483 F       1  UNL1       -0.1659
@<TRIPOS>BOND
     1     7     8    2
     2     8     9   am
     3     9    13    1
     4    13    14    1
     5    14    15   ar
     6    15    16   ar
     7    16    17   ar
     8    17    18   ar
     9    18    19    1
    10    18    20   ar
    11     8    10   am
    12    10     1    1
    13     1     2    1
    14     2     3    1
    15     3     4    1
    16     4    21    1
    17    21    22    1
    18    22    23   ar
    19    23    24   ar
    20    24    25   ar
    21    25    27    1
    22    27    28   ar
    23    28    29   ar
    24    29    30   ar
    25    30    33    1
    26    33    34    1
    27    33    35    1
    28    33    36    1
    29    30    31   ar
    30    31    32   ar
    31    25    26   ar
    32     4     5    1
    33     5     6    1
    34    20    14   ar
    35     6     1    1
    36    26    22   ar
    37    32    27   ar
    38     9    11    1
    39    10    12    1
@<TRIPOS>MOLECULE
*****
 36 39 0 0 0
SMALL
GASTEIGER

@<TRIPOS>ATOM
      1 C         138.6911  142.2859  158.0863 C.3     1  UNL1        0.0758
      2 C         139.9715  141.7541  157.5136 C.3     1  UNL1        0.0370
      3 C         141.0691  141.2968  158.4280 C.3     1  UNL1        0.0741
      4 N         140.8864  141.3712  159.9149 N.3     1  UNL1       -0.2688
      5 C         139.6061  141.9030  160.4876 C.3     1  UNL1        0.0741
      6 C         138.5084  142.3604  159.5732 C.3     1  UNL1        0.0370
      7 O         136.8714  140.2748  156.8042 O.2     1  UNL1       -0.2528
      8 C         136.6836  141.7377  156.5309 C.2     1  UNL1        0.3010
      9 N         135.5859  142.1951  155.6165 N.am    1  UNL1       -0.2849
     10 N         137.5935  142.7433  157.1720 N.am    1  UNL1       -0.2905
     11 H         135.4627  143.1552  155.4372 H       1  UNL1        0.1513
     12 H         137.4702  143.7034  156.9926 H       1  UNL1        0.1509
     13 C         134.6761  141.1895  154.9755 C.3     1  UNL1        0.1177
     14 C         133.4287  140.7486  155.6825 C.ar    1  UNL1       -0.0003
     15 C         132.1016  141.3306  155.2953 C.ar    1  UNL1       -0.0025
     16 C         130.8543  140.8897  156.0023 C.ar    1  UNL1        0.0020
     17 C         130.9342  139.8668  157.0965 C.ar    1  UNL1        0.0296
     18 C         132.2613  139.2848  157.4837 C.ar    1  UNL1        0.1399
     19 F         132.3412  138.2619  158.5779 F       1  UNL1       -0.2042
     20 C         133.5086  139.7257  156.7767 C.ar    1  UNL1        0.0270
     21 C         141.9840  140.9139  160.8292 C.3     1  UNL1        0.1007
     22 C         141.6512  140.1551  162.0797 C.ar    1  UNL1        0.0129
     23 C         141.3287  138.6926  162.1642 C.ar    1  UNL1        0.0176
     24 C         141.0607  138.3594  163.6019 C.ar    1  UNL1        0.0799
     25 N         141.2174  139.6159  164.4061 N.ar    1  UNL1       -0.3038
     26 C         141.5824  140.7257  163.4653 C.ar    1  UNL1        0.0772
     27 C         141.0403  139.7407  165.8903 C.ar    1  UNL1        0.0640
     28 C         142.2388  139.7286  166.7922 C.ar    1  UNL1        0.0175
     29 C         142.0617  139.8534  168.2765 C.ar    1  UNL1        0.0053
     30 C         140.6861  139.9902  168.8588 C.ar    1  UNL1        0.0715
     31 C         139.4876  140.0023  167.9569 C.ar    1  UNL1        0.0053
     32 C         139.6647  139.8775  166.4726 C.ar    1  UNL1        0.0175
     33 C         140.5090  140.1150  170.3431 C.3     1  UNL1        0.4186
     34 F         140.3319  140.2397  171.8273 F       1  UNL1       -0.1659
     35 F         139.0343  140.3106  170.1507 F       1  UNL1       -0.1659
     36 F         141.9837  139.9194  170.5355 F       1  UNL1       -0.1659
@<TRIPOS>BOND
     1     7     8    2
     2     8     9   am
     3     9    13    1
     4    13    14    1
     5    14    15   ar
     6    15    16   ar
     7    16    17   ar
     8    17    18   ar
     9    18    19    1
    10    18    20   ar
    11     8    10   am
    12    10     1    1
    13     1     2    1
    14     2     3    1
    15     3     4    1
    16     4    21    1
    17    21    22    1
    18    22    23   ar
    19    23    24   ar
    20    24    25   ar
    21    25    27    1
    22    27    28   ar
    23    28    29   ar
    24    29    30   ar
    25    30    33    1
    26    33    34    1
    27    33    35    1
    28    33    36    1
    29    30    31   ar
    30    31    32   ar
    31    25    26   ar
    32     4     5    1
    33     5     6    1
    34    20    14   ar
    35     6     1    1
    36    26    22   ar
    37    32    27   ar
    38     9    11    1
    39    10    12    1
