@<TRIPOS>MOLECULE
*****
 39 44 0 0 0
SMALL
GASTEIGER

@<TRIPOS>ATOM
      1 N         142.2449  139.9348  162.2084 N.3     1  UNL1       -0.2639
      2 C         140.7860  139.6149  162.0702 C.3     1  UNL1        0.0981
      3 C         140.3581  138.3082  161.4710 C.3     1  UNL1        0.0224
      4 C         138.8992  137.9883  161.3328 C.3     1  UNL1        0.0065
      5 C         137.8680  138.9754  161.7938 C.3     1  UNL1        0.0277
      6 C         138.2958  140.2821  162.3930 C.ar    1  UNL1       -0.0073
      7 C         137.2647  141.2692  162.8540 C.ar    1  UNL1       -0.0015
      8 C         137.6925  142.5760  163.4533 C.ar    1  UNL1        0.0203
      9 C         139.1515  142.8959  163.5916 C.ar    1  UNL1        0.0985
     10 N         140.1827  141.9089  163.1305 N.ar    1  UNL1       -0.2471
     11 C         139.7548  140.6020  162.5312 C.ar    1  UNL1        0.0695
     12 C         142.9548  139.6557  163.5000 C.3     1  UNL1        0.1204
     13 N         141.2905  140.0471  166.2744 N.ar    1  UNL1       -0.3236
     14 C         140.8640  140.6466  167.5817 C.ar    1  UNL1        0.0600
     15 C         139.8086  140.2500  168.5709 C.ar    1  UNL1        0.0172
     16 C         139.6070  141.0596  169.8175 C.ar    1  UNL1        0.0015
     17 C         140.4609  142.2657  170.0748 C.ar    1  UNL1        0.0001
     18 C         141.5163  142.6622  169.0855 C.ar    1  UNL1        0.0015
     19 C         141.7179  141.8527  167.8390 C.ar    1  UNL1        0.0173
     20 C         142.6720  141.9986  166.6908 C.ar    1  UNL1        0.0199
     21 C         143.7473  143.0034  166.4008 C.ar    1  UNL1        0.0221
     22 C         144.5584  142.8924  165.1438 C.ar    1  UNL1        0.0986
     23 N         144.2942  141.7765  164.1769 N.ar    1  UNL1       -0.2453
     24 C         143.2189  140.7716  164.4669 C.ar    1  UNL1        0.0909
     25 C         142.4079  140.8827  165.7238 C.ar    1  UNL1        0.0751
     26 C         140.7026  138.8264  165.6309 C.3     1  UNL1        0.1377
     27 O         138.6258  137.4452  164.9034 O.3     1  UNL1       -0.3799
     28 C         139.2137  138.6692  165.5408 C.3     1  UNL1        0.1616
     29 H         137.6578  137.5016  164.9269 H       1  UNL1        0.2105
     30 C         142.9940  140.5337  161.0551 C.3     1  UNL1        0.0741
     31 C         142.4005  141.6783  160.2884 C.3     1  UNL1        0.0347
     32 C         142.9537  143.0621  160.4586 C.3     1  UNL1        0.0736
     33 N         142.1755  144.0922  161.2224 N.3     1  UNL1       -0.2703
     34 C         140.9819  144.7485  160.5941 C.3     1  UNL1        0.0894
     35 C         140.2038  145.7786  161.3579 C.3     1  UNL1        0.0862
     36 N         140.6192  146.1525  162.7498 N.3     1  UNL1       -0.2951
     37 C         141.8128  145.4962  163.3780 C.3     1  UNL1        0.0862
     38 C         142.5910  144.4661  162.6143 C.3     1  UNL1        0.0894
     39 H         139.8229  145.9583  163.3569 H       1  UNL1        0.1233
@<TRIPOS>BOND
     1    27    28    1
     2    28    26    1
     3    26    13    1
     4    13    14   ar
     5    14    15   ar
     6    15    16   ar
     7    16    17   ar
     8    17    18   ar
     9    18    19   ar
    10    19    20   ar
    11    20    21   ar
    12    21    22   ar
    13    22    23   ar
    14    23    24   ar
    15    24    12    1
    16    12     1    1
    17     1    30    1
    18    30    31    1
    19    31    32    1
    20    32    33    1
    21    33    34    1
    22    34    35    1
    23    35    36    1
    24    36    37    1
    25    37    38    1
    26     1     2    1
    27     2     3    1
    28     3     4    1
    29     4     5    1
    30     5     6    1
    31     6     7   ar
    32     7     8   ar
    33     8     9   ar
    34     9    10   ar
    35    10    11   ar
    36    24    25   ar
    37    25    13   ar
    38    19    14   ar
    39    25    20   ar
    40    38    33    1
    41    11     2    1
    42    11     6   ar
    43    27    29    1
    44    36    39    1
@<TRIPOS>MOLECULE
*****
 39 44 0 0 0
SMALL
GASTEIGER

@<TRIPOS>ATOM
      1 N         139.3260  140.5899  162.7742 N.3     1  UNL1       -0.2639
      2 C         139.2114  141.9641  163.3645 C.3     1  UNL1        0.0981
      3 C         137.9606  142.3680  164.0871 C.3     1  UNL1        0.0224
      4 C         137.8460  143.7422  164.6774 C.3     1  UNL1        0.0065
      5 C         138.9822  144.7126  164.5449 C.3     1  UNL1        0.0277
      6 C         140.2330  144.3087  163.8222 C.ar    1  UNL1       -0.0073
      7 C         141.3692  145.2790  163.6898 C.ar    1  UNL1       -0.0015
      8 C         142.6200  144.8751  162.9671 C.ar    1  UNL1        0.0203
      9 C         142.7347  143.5009  162.3768 C.ar    1  UNL1        0.0985
     10 N         141.5985  142.5305  162.5093 N.ar    1  UNL1       -0.2471
     11 C         140.3476  142.9345  163.2320 C.ar    1  UNL1        0.0695
     12 C         139.8724  139.4626  163.5991 C.3     1  UNL1        0.1204
     13 N         139.8774  139.8370  166.8365 N.ar    1  UNL1       -0.3236
     14 C         140.4094  140.0413  168.2240 C.ar    1  UNL1        0.0600
     15 C         139.7271  140.1387  169.5563 C.ar    1  UNL1        0.0172
     16 C         140.5379  140.3496  170.8005 C.ar    1  UNL1        0.0015
     17 C         142.0310  140.4629  170.7124 C.ar    1  UNL1        0.0001
     18 C         142.7133  140.3655  169.3802 C.ar    1  UNL1        0.0015
     19 C         141.9025  140.1547  168.1360 C.ar    1  UNL1        0.0173
     20 C         142.2933  140.0204  166.6940 C.ar    1  UNL1        0.0199
     21 C         143.6271  140.0516  166.0085 C.ar    1  UNL1        0.0221
     22 C         143.7093  139.8864  164.5199 C.ar    1  UNL1        0.0986
     23 N         142.4578  139.6901  163.7167 N.ar    1  UNL1       -0.2453
     24 C         141.1240  139.6589  164.4022 C.ar    1  UNL1        0.0909
     25 C         141.0417  139.8241  165.8909 C.ar    1  UNL1        0.0751
     26 C         138.4344  139.6742  166.4606 C.3     1  UNL1        0.1377
     27 O         136.9130  137.9447  167.6623 O.3     1  UNL1       -0.3799
     28 C         137.7954  138.3180  166.5082 C.3     1  UNL1        0.1616
     29 H         136.5835  137.0408  167.5383 H       1  UNL1        0.2105
     30 C         138.8943  140.3430  161.3590 C.3     1  UNL1        0.0741
     31 C         139.1343  139.0053  160.7242 C.3     1  UNL1        0.0347
     32 C         140.2464  138.8347  159.7321 C.3     1  UNL1        0.0736
     33 N         141.6742  138.9037  160.1868 N.3     1  UNL1       -0.2703
     34 C         142.3315  137.6933  160.7807 C.3     1  UNL1        0.0894
     35 C         143.7593  137.7623  161.2354 C.3     1  UNL1        0.0862
     36 N         144.5297  139.0417  161.0960 N.3     1  UNL1       -0.2951
     37 C         143.8724  140.2521  160.5020 C.3     1  UNL1        0.0862
     38 C         142.4446  140.1831  160.0474 C.3     1  UNL1        0.0894
     39 H         145.3430  138.8340  160.5164 H       1  UNL1        0.1233
@<TRIPOS>BOND
     1    27    28    1
     2    28    26    1
     3    26    13    1
     4    13    14   ar
     5    14    15   ar
     6    15    16   ar
     7    16    17   ar
     8    17    18   ar
     9    18    19   ar
    10    19    20   ar
    11    20    21   ar
    12    21    22   ar
    13    22    23   ar
    14    23    24   ar
    15    24    12    1
    16    12     1    1
    17     1    30    1
    18    30    31    1
    19    31    32    1
    20    32    33    1
    21    33    34    1
    22    34    35    1
    23    35    36    1
    24    36    37    1
    25    37    38    1
    26     1     2    1
    27     2     3    1
    28     3     4    1
    29     4     5    1
    30     5     6    1
    31     6     7   ar
    32     7     8   ar
    33     8     9   ar
    34     9    10   ar
    35    10    11   ar
    36    24    25   ar
    37    25    13   ar
    38    19    14   ar
    39    25    20   ar
    40    38    33    1
    41    11     2    1
    42    11     6   ar
    43    27    29    1
    44    36    39    1
@<TRIPOS>MOLECULE
*****
 39 44 0 0 0
SMALL
GASTEIGER

@<TRIPOS>ATOM
      1 N         139.8982  139.9354  162.8362 N.3     1  UNL1       -0.2639
      2 C         140.9529  140.7057  162.0986 C.3     1  UNL1        0.0981
      3 C         141.3969  140.2558  160.7383 C.3     1  UNL1        0.0224
      4 C         142.4516  141.0262  160.0007 C.3     1  UNL1        0.0065
      5 C         143.0623  142.2466  160.6234 C.3     1  UNL1        0.0277
      6 C         142.6184  142.6965  161.9837 C.ar    1  UNL1       -0.0073
      7 C         143.2291  143.9168  162.6063 C.ar    1  UNL1       -0.0015
      8 C         142.7852  144.3668  163.9667 C.ar    1  UNL1        0.0203
      9 C         141.7305  143.5964  164.7043 C.ar    1  UNL1        0.0985
     10 N         141.1197  142.3760  164.0817 N.ar    1  UNL1       -0.2471
     11 C         141.5637  141.9261  162.7213 C.ar    1  UNL1        0.0695
     12 C         140.2860  138.7751  163.7041 C.3     1  UNL1        0.1204
     13 N         140.0715  139.6721  166.8298 N.ar    1  UNL1       -0.3236
     14 C         140.5059  140.0076  168.2258 C.ar    1  UNL1        0.0600
     15 C         139.7377  140.4399  169.4394 C.ar    1  UNL1        0.0172
     16 C         140.4589  140.7100  170.7266 C.ar    1  UNL1        0.0015
     17 C         141.9483  140.5478  170.8001 C.ar    1  UNL1        0.0001
     18 C         142.7165  140.1156  169.5865 C.ar    1  UNL1        0.0015
     19 C         141.9953  139.8455  168.2993 C.ar    1  UNL1        0.0173
     20 C         142.4813  139.4097  166.9488 C.ar    1  UNL1        0.0199
     21 C         143.8530  139.0966  166.4287 C.ar    1  UNL1        0.0221
     22 C         144.0356  138.6764  165.0004 C.ar    1  UNL1        0.0986
     23 N         142.8467  138.5692  164.0922 N.ar    1  UNL1       -0.2453
     24 C         141.4750  138.8823  164.6123 C.ar    1  UNL1        0.0909
     25 C         141.2923  139.3025  166.0406 C.ar    1  UNL1        0.0751
     26 C         138.6633  139.7010  166.3137 C.3     1  UNL1        0.1377
     27 O         137.2731  138.2020  167.9169 O.3     1  UNL1       -0.3799
     28 C         137.7591  138.5249  166.5350 C.3     1  UNL1        0.1616
     29 H         136.7028  137.4180  167.8841 H       1  UNL1        0.2105
     30 C         138.4556  140.3253  162.7059 C.3     1  UNL1        0.0741
     31 C         138.0339  141.2948  161.6419 C.3     1  UNL1        0.0347
     32 C         137.8205  142.7393  161.9853 C.3     1  UNL1        0.0736
     33 N         138.8087  143.7722  161.5306 N.3     1  UNL1       -0.2703
     34 C         139.4762  143.6346  160.1944 C.3     1  UNL1        0.0894
     35 C         140.4644  144.6675  159.7397 C.3     1  UNL1        0.0862
     36 N         140.7850  145.8379  160.6213 N.3     1  UNL1       -0.2951
     37 C         140.1175  145.9755  161.9575 C.3     1  UNL1        0.0862
     38 C         139.1293  144.9426  162.4122 C.3     1  UNL1        0.0894
     39 H         140.5563  146.6780  160.0900 H       1  UNL1        0.1233
@<TRIPOS>BOND
     1    27    28    1
     2    28    26    1
     3    26    13    1
     4    13    14   ar
     5    14    15   ar
     6    15    16   ar
     7    16    17   ar
     8    17    18   ar
     9    18    19   ar
    10    19    20   ar
    11    20    21   ar
    12    21    22   ar
    13    22    23   ar
    14    23    24   ar
    15    24    12    1
    16    12     1    1
    17     1    30    1
    18    30    31    1
    19    31    32    1
    20    32    33    1
    21    33    34    1
    22    34    35    1
    23    35    36    1
    24    36    37    1
    25    37    38    1
    26     1     2    1
    27     2     3    1
    28     3     4    1
    29     4     5    1
    30     5     6    1
    31     6     7   ar
    32     7     8   ar
    33     8     9   ar
    34     9    10   ar
    35    10    11   ar
    36    24    25   ar
    37    25    13   ar
    38    19    14   ar
    39    25    20   ar
    40    38    33    1
    41    11     2    1
    42    11     6   ar
    43    27    29    1
    44    36    39    1
@<TRIPOS>MOLECULE
*****
 39 44 0 0 0
SMALL
GASTEIGER

@<TRIPOS>ATOM
      1 N         139.0013  140.2515  162.8908 N.3     1  UNL1       -0.2639
      2 C         138.8692  141.7437  162.9676 C.3     1  UNL1        0.0981
      3 C         137.6708  142.3575  163.6286 C.3     1  UNL1        0.0224
      4 C         137.5386  143.8497  163.7054 C.3     1  UNL1        0.0065
      5 C         138.6050  144.7281  163.1212 C.3     1  UNL1        0.0277
      6 C         139.8034  144.1143  162.4603 C.ar    1  UNL1       -0.0073
      7 C         140.8698  144.9928  161.8761 C.ar    1  UNL1       -0.0015
      8 C         142.0683  144.3790  161.2151 C.ar    1  UNL1        0.0203
      9 C         142.2005  142.8868  161.1382 C.ar    1  UNL1        0.0985
     10 N         141.1341  142.0083  161.7224 N.ar    1  UNL1       -0.2471
     11 C         139.9356  142.6222  162.3834 C.ar    1  UNL1        0.0695
     12 C         139.8314  139.5190  163.9028 C.3     1  UNL1        0.1204
     13 N         141.5140  140.9605  166.2928 N.ar    1  UNL1       -0.3236
     14 C         141.8783  141.4142  167.6754 C.ar    1  UNL1        0.0600
     15 C         143.0317  142.2194  168.1962 C.ar    1  UNL1        0.0172
     16 C         143.1335  142.5228  169.6616 C.ar    1  UNL1        0.0015
     17 C         142.0819  142.0209  170.6062 C.ar    1  UNL1        0.0001
     18 C         140.9286  141.2156  170.0854 C.ar    1  UNL1        0.0015
     19 C         140.8267  140.9123  168.6200 C.ar    1  UNL1        0.0173
     20 C         139.8126  140.1484  167.8212 C.ar    1  UNL1        0.0199
     21 C         138.5572  139.4296  168.2177 C.ar    1  UNL1        0.0221
     22 C         137.7265  138.7406  167.1760 C.ar    1  UNL1        0.0986
     23 N         138.1513  138.7704  165.7377 N.ar    1  UNL1       -0.2453
     24 C         139.4066  139.4892  165.3411 C.ar    1  UNL1        0.0909
     25 C         140.2373  140.1783  166.3829 C.ar    1  UNL1        0.0751
     26 C         142.2901  141.2401  165.0400 C.3     1  UNL1        0.1377
     27 O         144.3355  140.7695  163.5088 O.3     1  UNL1       -0.3799
     28 C         143.5385  140.4638  164.7422 C.3     1  UNL1        0.1616
     29 H         145.1057  140.1812  163.4674 H       1  UNL1        0.2105
     30 C         138.3034  139.4918  161.8018 C.3     1  UNL1        0.0741
     31 C         138.9801  138.3218  161.1513 C.3     1  UNL1        0.0347
     32 C         139.9765  138.5472  160.0529 C.3     1  UNL1        0.0736
     33 N         141.4392  138.6347  160.3735 N.3     1  UNL1       -0.2703
     34 C         142.0015  137.8603  161.5286 C.3     1  UNL1        0.0894
     35 C         143.4642  137.9478  161.8492 C.3     1  UNL1        0.0862
     36 N         144.3646  138.8096  161.0148 N.3     1  UNL1       -0.2951
     37 C         143.8023  139.5840  159.8597 C.3     1  UNL1        0.0862
     38 C         142.3396  139.4965  159.5391 C.3     1  UNL1        0.0894
     39 H         145.0882  138.1989  160.6355 H       1  UNL1        0.1233
@<TRIPOS>BOND
     1    27    28    1
     2    28    26    1
     3    26    13    1
     4    13    14   ar
     5    14    15   ar
     6    15    16   ar
     7    16    17   ar
     8    17    18   ar
     9    18    19   ar
    10    19    20   ar
    11    20    21   ar
    12    21    22   ar
    13    22    23   ar
    14    23    24   ar
    15    24    12    1
    16    12     1    1
    17     1    30    1
    18    30    31    1
    19    31    32    1
    20    32    33    1
    21    33    34    1
    22    34    35    1
    23    35    36    1
    24    36    37    1
    25    37    38    1
    26     1     2    1
    27     2     3    1
    28     3     4    1
    29     4     5    1
    30     5     6    1
    31     6     7   ar
    32     7     8   ar
    33     8     9   ar
    34     9    10   ar
    35    10    11   ar
    36    24    25   ar
    37    25    13   ar
    38    19    14   ar
    39    25    20   ar
    40    38    33    1
    41    11     2    1
    42    11     6   ar
    43    27    29    1
    44    36    39    1
@<TRIPOS>MOLECULE
*****
 39 44 0 0 0
SMALL
GASTEIGER

@<TRIPOS>ATOM
      1 N         141.1407  138.2392  163.0936 N.3     1  UNL1       -0.2639
      2 C         139.9959  139.0205  162.5201 C.3     1  UNL1        0.0981
      3 C         138.8600  138.3049  161.8511 C.3     1  UNL1        0.0224
      4 C         137.7152  139.0862  161.2776 C.3     1  UNL1        0.0065
      5 C         137.7063  140.5832  161.3730 C.3     1  UNL1        0.0277
      6 C         138.8423  141.2987  162.0419 C.ar    1  UNL1       -0.0073
      7 C         138.8334  142.7957  162.1373 C.ar    1  UNL1       -0.0015
      8 C         139.9693  143.5113  162.8063 C.ar    1  UNL1        0.0203
      9 C         141.1142  142.7300  163.3798 C.ar    1  UNL1        0.0985
     10 N         141.1231  141.2331  163.2844 N.ar    1  UNL1       -0.2471
     11 C         139.9871  140.5174  162.6155 C.ar    1  UNL1        0.0695
     12 C         141.0174  137.6160  164.4524 C.3     1  UNL1        0.1204
     13 N         141.9661  139.9261  166.5463 N.ar    1  UNL1       -0.3236
     14 C         141.8862  140.9306  167.6574 C.ar    1  UNL1        0.0600
     15 C         142.9051  141.8625  168.2432 C.ar    1  UNL1        0.0172
     16 C         142.5268  142.7724  169.3740 C.ar    1  UNL1        0.0015
     17 C         141.1295  142.7504  169.9191 C.ar    1  UNL1        0.0001
     18 C         140.1105  141.8185  169.3333 C.ar    1  UNL1        0.0015
     19 C         140.4889  140.9086  168.2024 C.ar    1  UNL1        0.0173
     20 C         139.7053  139.8905  167.4282 C.ar    1  UNL1        0.0199
     21 C         138.2784  139.4379  167.5230 C.ar    1  UNL1        0.0221
     22 C         137.7645  138.3780  166.5942 C.ar    1  UNL1        0.0986
     23 N         138.6775  137.7707  165.5707 N.ar    1  UNL1       -0.2453
     24 C         140.1044  138.2233  165.4759 C.ar    1  UNL1        0.0909
     25 C         140.6183  139.2832  166.4046 C.ar    1  UNL1        0.0751
     26 C         143.1808  139.6184  165.7217 C.3     1  UNL1        0.1377
     27 O         144.0992  137.8133  167.3490 O.3     1  UNL1       -0.3799
     28 C         143.9450  138.3493  165.9565 C.3     1  UNL1        0.1616
     29 H         144.6162  136.9930  167.3242 H       1  UNL1        0.2105
     30 C         142.4090  138.0810  162.3083 C.3     1  UNL1        0.0741
     31 C         142.4862  138.5872  160.8984 C.3     1  UNL1        0.0347
     32 C         143.6886  139.3601  160.4437 C.3     1  UNL1        0.0736
     33 N         144.0500  140.6502  161.1183 N.3     1  UNL1       -0.2703
     34 C         143.6550  141.9574  160.4977 C.3     1  UNL1        0.0894
     35 C         144.0165  143.2475  161.1722 C.3     1  UNL1        0.0862
     36 N         144.7729  143.2304  162.4674 N.3     1  UNL1       -0.2951
     37 C         145.1679  141.9232  163.0880 C.3     1  UNL1        0.0862
     38 C         144.8064  140.6331  162.4134 C.3     1  UNL1        0.0894
     39 H         144.1957  143.7188  163.1520 H       1  UNL1        0.1233
@<TRIPOS>BOND
     1    27    28    1
     2    28    26    1
     3    26    13    1
     4    13    14   ar
     5    14    15   ar
     6    15    16   ar
     7    16    17   ar
     8    17    18   ar
     9    18    19   ar
    10    19    20   ar
    11    20    21   ar
    12    21    22   ar
    13    22    23   ar
    14    23    24   ar
    15    24    12    1
    16    12     1    1
    17     1    30    1
    18    30    31    1
    19    31    32    1
    20    32    33    1
    21    33    34    1
    22    34    35    1
    23    35    36    1
    24    36    37    1
    25    37    38    1
    26     1     2    1
    27     2     3    1
    28     3     4    1
    29     4     5    1
    30     5     6    1
    31     6     7   ar
    32     7     8   ar
    33     8     9   ar
    34     9    10   ar
    35    10    11   ar
    36    24    25   ar
    37    25    13   ar
    38    19    14   ar
    39    25    20   ar
    40    38    33    1
    41    11     2    1
    42    11     6   ar
    43    27    29    1
    44    36    39    1
@<TRIPOS>MOLECULE
*****
 39 44 0 0 0
SMALL
GASTEIGER

@<TRIPOS>ATOM
      1 N         138.7536  139.8579  164.3947 N.3     1  UNL1       -0.2639
      2 C         139.4093  140.1612  165.7092 C.3     1  UNL1        0.0981
      3 C         138.7933  139.6702  166.9856 C.3     1  UNL1        0.0224
      4 C         139.4490  139.9735  168.3002 C.3     1  UNL1        0.0065
      5 C         140.7209  140.7678  168.3383 C.3     1  UNL1        0.0277
      6 C         141.3369  141.2589  167.0619 C.ar    1  UNL1       -0.0073
      7 C         142.6087  142.0533  167.1000 C.ar    1  UNL1       -0.0015
      8 C         143.2248  142.5444  165.8236 C.ar    1  UNL1        0.0203
      9 C         142.5691  142.2411  164.5090 C.ar    1  UNL1        0.0985
     10 N         141.2973  141.4467  164.4709 N.ar    1  UNL1       -0.2471
     11 C         140.6812  140.9556  165.7474 C.ar    1  UNL1        0.0695
     12 C         137.8261  140.8581  163.7708 C.3     1  UNL1        0.1204
     13 N         139.2611  141.9799  161.0683 N.ar    1  UNL1       -0.3236
     14 C         139.9104  142.9466  160.1229 C.ar    1  UNL1        0.0600
     15 C         140.4566  142.7806  158.7358 C.ar    1  UNL1        0.0172
     16 C         141.0604  143.9537  158.0222 C.ar    1  UNL1        0.0015
     17 C         141.1180  145.2927  158.6957 C.ar    1  UNL1        0.0001
     18 C         140.5718  145.4588  160.0828 C.ar    1  UNL1        0.0015
     19 C         139.9680  144.2857  160.7964 C.ar    1  UNL1        0.0173
     20 C         139.3543  144.1465  162.1580 C.ar    1  UNL1        0.0199
     21 C         139.1368  145.1333  163.2665 C.ar    1  UNL1        0.0221
     22 C         138.4825  144.6950  164.5432 C.ar    1  UNL1        0.0986
     23 N         138.0456  143.2700  164.7113 N.ar    1  UNL1       -0.2453
     24 C         138.2630  142.2832  163.6027 C.ar    1  UNL1        0.0909
     25 C         138.9174  142.7214  162.3261 C.ar    1  UNL1        0.0751
     26 C         139.0011  140.5267  160.8026 C.3     1  UNL1        0.1377
     27 O         136.6858  139.3482  160.8207 O.3     1  UNL1       -0.3799
     28 C         137.7516  140.1069  160.0869 C.3     1  UNL1        0.1616
     29 H         135.9515  139.1562  160.2167 H       1  UNL1        0.2105
     30 C         139.0254  138.5544  163.7040 C.3     1  UNL1        0.0741
     31 C         140.0075  137.5847  164.2917 C.3     1  UNL1        0.0347
     32 C         141.2098  137.1626  163.5003 C.3     1  UNL1        0.0736
     33 N         142.4470  138.0109  163.5058 N.3     1  UNL1       -0.2703
     34 C         143.1158  138.3533  164.8040 C.3     1  UNL1        0.0894
     35 C         144.3530  139.2015  164.8095 C.3     1  UNL1        0.0862
     36 N         144.9212  139.7073  163.5168 N.3     1  UNL1       -0.2951
     37 C         144.2523  139.3649  162.2186 C.3     1  UNL1        0.0862
     38 C         143.0152  138.5166  162.2131 C.3     1  UNL1        0.0894
     39 H         145.8767  139.3554  163.4575 H       1  UNL1        0.1233
@<TRIPOS>BOND
     1    27    28    1
     2    28    26    1
     3    26    13    1
     4    13    14   ar
     5    14    15   ar
     6    15    16   ar
     7    16    17   ar
     8    17    18   ar
     9    18    19   ar
    10    19    20   ar
    11    20    21   ar
    12    21    22   ar
    13    22    23   ar
    14    23    24   ar
    15    24    12    1
    16    12     1    1
    17     1    30    1
    18    30    31    1
    19    31    32    1
    20    32    33    1
    21    33    34    1
    22    34    35    1
    23    35    36    1
    24    36    37    1
    25    37    38    1
    26     1     2    1
    27     2     3    1
    28     3     4    1
    29     4     5    1
    30     5     6    1
    31     6     7   ar
    32     7     8   ar
    33     8     9   ar
    34     9    10   ar
    35    10    11   ar
    36    24    25   ar
    37    25    13   ar
    38    19    14   ar
    39    25    20   ar
    40    38    33    1
    41    11     2    1
    42    11     6   ar
    43    27    29    1
    44    36    39    1
@<TRIPOS>MOLECULE
*****
 39 44 0 0 0
SMALL
GASTEIGER

@<TRIPOS>ATOM
      1 N         139.0110  141.9122  164.4750 N.3     1  UNL1       -0.2639
      2 C         139.0826  140.4314  164.7029 C.3     1  UNL1        0.0981
      3 C         138.1828  139.7837  165.7133 C.3     1  UNL1        0.0224
      4 C         138.2544  138.3029  165.9412 C.3     1  UNL1        0.0065
      5 C         139.2258  137.4697  165.1588 C.3     1  UNL1        0.0277
      6 C         140.1255  138.1174  164.1484 C.ar    1  UNL1       -0.0073
      7 C         141.0969  137.2842  163.3660 C.ar    1  UNL1       -0.0015
      8 C         141.9967  137.9318  162.3555 C.ar    1  UNL1        0.0203
      9 C         141.9251  139.4127  162.1276 C.ar    1  UNL1        0.0985
     10 N         140.9538  140.2459  162.9100 N.ar    1  UNL1       -0.2471
     11 C         140.0539  139.5982  163.9205 C.ar    1  UNL1        0.0695
     12 C         138.1129  142.4642  163.4079 C.3     1  UNL1        0.1204
     13 N         139.7678  143.8025  160.9399 N.ar    1  UNL1       -0.3236
     14 C         140.3161  143.9882  159.5561 C.ar    1  UNL1        0.0600
     15 C         141.2052  145.0398  158.9615 C.ar    1  UNL1        0.0172
     16 C         141.5953  144.9620  157.5152 C.ar    1  UNL1        0.0015
     17 C         141.0963  143.8326  156.6635 C.ar    1  UNL1        0.0001
     18 C         140.2072  142.7809  157.2581 C.ar    1  UNL1        0.0015
     19 C         139.8171  142.8587  158.7044 C.ar    1  UNL1        0.0173
     20 C         138.9605  141.9750  159.5619 C.ar    1  UNL1        0.0199
     21 C         138.2043  140.7146  159.2631 C.ar    1  UNL1        0.0221
     22 C         137.4176  140.0373  160.3459 C.ar    1  UNL1        0.0986
     23 N         137.3871  140.6205  161.7275 N.ar    1  UNL1       -0.2453
     24 C         138.1434  141.8810  162.0263 C.ar    1  UNL1        0.0909
     25 C         138.9300  142.5582  160.9435 C.ar    1  UNL1        0.0751
     26 C         140.0142  144.7029  162.1140 C.3     1  UNL1        0.1377
     27 O         138.8963  146.8040  161.0721 O.3     1  UNL1       -0.3799
     28 C         139.9529  146.1918  161.9432 C.3     1  UNL1        0.1616
     29 H         138.9973  147.7687  161.0708 H       1  UNL1        0.2105
     30 C         139.8375  142.8411  165.3142 C.3     1  UNL1        0.0741
     31 C         141.2862  143.0562  164.9899 C.3     1  UNL1        0.0347
     32 C         142.3473  142.4357  165.8495 C.3     1  UNL1        0.0736
     33 N         143.2823  141.4166  165.2686 N.3     1  UNL1       -0.2703
     34 C         143.2092  139.9881  165.7202 C.3     1  UNL1        0.0894
     35 C         144.1442  138.9691  165.1392 C.3     1  UNL1        0.0862
     36 N         145.1522  139.3787  164.1067 N.3     1  UNL1       -0.2951
     37 C         145.2252  140.8072  163.6551 C.3     1  UNL1        0.0862
     38 C         144.2902  141.8262  164.2360 C.3     1  UNL1        0.0894
     39 H         144.9678  138.8163  163.2760 H       1  UNL1        0.1233
@<TRIPOS>BOND
     1    27    28    1
     2    28    26    1
     3    26    13    1
     4    13    14   ar
     5    14    15   ar
     6    15    16   ar
     7    16    17   ar
     8    17    18   ar
     9    18    19   ar
    10    19    20   ar
    11    20    21   ar
    12    21    22   ar
    13    22    23   ar
    14    23    24   ar
    15    24    12    1
    16    12     1    1
    17     1    30    1
    18    30    31    1
    19    31    32    1
    20    32    33    1
    21    33    34    1
    22    34    35    1
    23    35    36    1
    24    36    37    1
    25    37    38    1
    26     1     2    1
    27     2     3    1
    28     3     4    1
    29     4     5    1
    30     5     6    1
    31     6     7   ar
    32     7     8   ar
    33     8     9   ar
    34     9    10   ar
    35    10    11   ar
    36    24    25   ar
    37    25    13   ar
    38    19    14   ar
    39    25    20   ar
    40    38    33    1
    41    11     2    1
    42    11     6   ar
    43    27    29    1
    44    36    39    1
@<TRIPOS>MOLECULE
*****
 39 44 0 0 0
SMALL
GASTEIGER

@<TRIPOS>ATOM
      1 N         139.5813  141.8275  165.6451 N.3     1  UNL1       -0.2639
      2 C         139.3660  140.3470  165.5362 C.3     1  UNL1        0.0981
      3 C         138.3230  139.6767  166.3804 C.3     1  UNL1        0.0224
      4 C         138.1077  138.1963  166.2715 C.3     1  UNL1        0.0065
      5 C         138.9355  137.3861  165.3183 C.3     1  UNL1        0.0277
      6 C         139.9785  138.0564  164.4741 C.ar    1  UNL1       -0.0073
      7 C         140.8062  137.2462  163.5210 C.ar    1  UNL1       -0.0015
      8 C         141.8493  137.9165  162.6768 C.ar    1  UNL1        0.0203
      9 C         142.0646  139.3971  162.7857 C.ar    1  UNL1        0.0985
     10 N         141.2369  140.2072  163.7388 N.ar    1  UNL1       -0.2471
     11 C         140.1938  139.5369  164.5831 C.ar    1  UNL1        0.0695
     12 C         138.8484  142.7614  164.7284 C.3     1  UNL1        0.1204
     13 N         138.5355  142.2627  161.5231 N.ar    1  UNL1       -0.3236
     14 C         138.7543  142.4338  160.0490 C.ar    1  UNL1        0.0600
     15 C         138.1697  141.7315  158.8594 C.ar    1  UNL1        0.0172
     16 C         138.5882  142.1273  157.4745 C.ar    1  UNL1        0.0015
     17 C         139.5912  143.2254  157.2791 C.ar    1  UNL1        0.0001
     18 C         140.1758  143.9277  158.4687 C.ar    1  UNL1        0.0015
     19 C         139.7573  143.5318  159.8536 C.ar    1  UNL1        0.0173
     20 C         140.1584  144.0394  161.2069 C.ar    1  UNL1        0.0199
     21 C         141.1137  145.1145  161.6330 C.ar    1  UNL1        0.0221
     22 C         141.3138  145.4052  163.0909 C.ar    1  UNL1        0.0986
     23 N         140.5588  144.6209  164.1227 N.ar    1  UNL1       -0.2453
     24 C         139.6035  143.5458  163.6966 C.ar    1  UNL1        0.0909
     25 C         139.4033  143.2550  162.2387 C.ar    1  UNL1        0.0751
     26 C         137.6112  141.2730  162.1682 C.3     1  UNL1        0.1377
     27 O         136.9174  139.0194  161.0774 O.3     1  UNL1       -0.3799
     28 C         137.8318  139.8024  161.9722 C.3     1  UNL1        0.1616
     29 H         137.1975  138.0909  161.0615 H       1  UNL1        0.2105
     30 C         140.5297  142.3741  166.6709 C.3     1  UNL1        0.0741
     31 C         141.9874  142.0265  166.6052 C.3     1  UNL1        0.0347
     32 C         142.5900  141.1218  167.6388 C.3     1  UNL1        0.0736
     33 N         141.9610  141.0097  168.9959 N.3     1  UNL1       -0.2703
     34 C         142.3429  141.9719  170.0814 C.3     1  UNL1        0.0894
     35 C         141.7139  141.8598  171.4385 C.3     1  UNL1        0.0862
     36 N         140.7029  140.7855  171.7101 N.3     1  UNL1       -0.2951
     37 C         140.3209  139.8234  170.6246 C.3     1  UNL1        0.0862
     38 C         140.9500  139.9354  169.2675 C.3     1  UNL1        0.0894
     39 H         139.8458  141.2549  172.0025 H       1  UNL1        0.1233
@<TRIPOS>BOND
     1    27    28    1
     2    28    26    1
     3    26    13    1
     4    13    14   ar
     5    14    15   ar
     6    15    16   ar
     7    16    17   ar
     8    17    18   ar
     9    18    19   ar
    10    19    20   ar
    11    20    21   ar
    12    21    22   ar
    13    22    23   ar
    14    23    24   ar
    15    24    12    1
    16    12     1    1
    17     1    30    1
    18    30    31    1
    19    31    32    1
    20    32    33    1
    21    33    34    1
    22    34    35    1
    23    35    36    1
    24    36    37    1
    25    37    38    1
    26     1     2    1
    27     2     3    1
    28     3     4    1
    29     4     5    1
    30     5     6    1
    31     6     7   ar
    32     7     8   ar
    33     8     9   ar
    34     9    10   ar
    35    10    11   ar
    36    24    25   ar
    37    25    13   ar
    38    19    14   ar
    39    25    20   ar
    40    38    33    1
    41    11     2    1
    42    11     6   ar
    43    27    29    1
    44    36    39    1
@<TRIPOS>MOLECULE
*****
 39 44 0 0 0
SMALL
GASTEIGER

@<TRIPOS>ATOM
      1 N         140.4159  143.7106  159.7470 N.3     1  UNL1       -0.2639
      2 C         141.7948  143.3146  160.1848 C.3     1  UNL1        0.0981
      3 C         142.6040  142.3675  159.3492 C.3     1  UNL1        0.0224
      4 C         143.9829  141.9715  159.7870 C.3     1  UNL1        0.0065
      5 C         144.5528  142.5226  161.0604 C.3     1  UNL1        0.0277
      6 C         143.7436  143.4697  161.8960 C.ar    1  UNL1       -0.0073
      7 C         144.3135  144.0208  163.1694 C.ar    1  UNL1       -0.0015
      8 C         143.5044  144.9679  164.0050 C.ar    1  UNL1        0.0203
      9 C         142.1254  145.3640  163.5673 C.ar    1  UNL1        0.0985
     10 N         141.5555  144.8129  162.2939 N.ar    1  UNL1       -0.2471
     11 C         142.3647  143.8657  161.4582 C.ar    1  UNL1        0.0695
     12 C         139.2340  142.8786  160.1477 C.3     1  UNL1        0.1204
     13 N         139.2193  140.2784  162.1123 N.ar    1  UNL1       -0.3236
     14 C         139.0024  139.4543  163.3467 C.ar    1  UNL1        0.0600
     15 C         139.2685  138.0093  163.6484 C.ar    1  UNL1        0.0172
     16 C         138.9412  137.4532  165.0025 C.ar    1  UNL1        0.0015
     17 C         138.3477  138.3422  166.0549 C.ar    1  UNL1        0.0001
     18 C         138.0816  139.7872  165.7533 C.ar    1  UNL1        0.0015
     19 C         138.4089  140.3433  164.3992 C.ar    1  UNL1        0.0173
     20 C         138.2592  141.7168  163.8151 C.ar    1  UNL1        0.0199
     21 C         137.7314  142.9988  164.3877 C.ar    1  UNL1        0.0221
     22 C         137.7045  144.2407  163.5470 C.ar    1  UNL1        0.0986
     23 N         138.2054  144.2007  162.1336 N.ar    1  UNL1       -0.2453
     24 C         138.7331  142.9187  161.5610 C.ar    1  UNL1        0.0909
     25 C         138.7600  141.6767  162.4018 C.ar    1  UNL1        0.0751
     26 C         139.7946  139.7899  160.8160 C.3     1  UNL1        0.1377
     27 O         137.4712  139.8177  159.6538 O.3     1  UNL1       -0.3799
     28 C         138.8838  139.3179  159.7218 C.3     1  UNL1        0.1616
     29 H         137.0227  139.4172  158.8927 H       1  UNL1        0.2105
     30 C         140.2189  144.9387  158.9085 C.3     1  UNL1        0.0741
     31 C         139.8518  144.8069  157.4601 C.3     1  UNL1        0.0347
     32 C         140.2302  143.5704  156.6999 C.3     1  UNL1        0.0736
     33 N         139.2617  142.4300  156.5929 N.3     1  UNL1       -0.2703
     34 C         137.7914  142.6765  156.7590 C.3     1  UNL1        0.0894
     35 C         136.8229  141.5361  156.6520 C.3     1  UNL1        0.0862
     36 N         137.3247  140.1492  156.3789 N.3     1  UNL1       -0.2951
     37 C         138.7949  139.9027  156.2128 C.3     1  UNL1        0.0862
     38 C         139.7634  141.0431  156.3198 C.3     1  UNL1        0.0894
     39 H         136.8748  139.8374  155.5182 H       1  UNL1        0.1233
@<TRIPOS>BOND
     1    27    28    1
     2    28    26    1
     3    26    13    1
     4    13    14   ar
     5    14    15   ar
     6    15    16   ar
     7    16    17   ar
     8    17    18   ar
     9    18    19   ar
    10    19    20   ar
    11    20    21   ar
    12    21    22   ar
    13    22    23   ar
    14    23    24   ar
    15    24    12    1
    16    12     1    1
    17     1    30    1
    18    30    31    1
    19    31    32    1
    20    32    33    1
    21    33    34    1
    22    34    35    1
    23    35    36    1
    24    36    37    1
    25    37    38    1
    26     1     2    1
    27     2     3    1
    28     3     4    1
    29     4     5    1
    30     5     6    1
    31     6     7   ar
    32     7     8   ar
    33     8     9   ar
    34     9    10   ar
    35    10    11   ar
    36    24    25   ar
    37    25    13   ar
    38    19    14   ar
    39    25    20   ar
    40    38    33    1
    41    11     2    1
    42    11     6   ar
    43    27    29    1
    44    36    39    1
