@<TRIPOS>MOLECULE
*****
 35 39 0 0 0
SMALL
GASTEIGER

@<TRIPOS>ATOM
      1 C         137.8928  140.0784  162.0450 C.3     1  UNL1        0.0570
      2 C         137.6963  140.3870  163.4996 C.3     1  UNL1        0.0331
      3 C         137.6793  141.8118  163.9684 C.3     1  UNL1        0.0735
      4 N         137.8588  142.9280  162.9825 N.3     1  UNL1       -0.2711
      5 C         138.0553  142.6193  161.5278 C.3     1  UNL1        0.0735
      6 C         138.0723  141.1945  161.0590 C.3     1  UNL1        0.0331
      7 N         137.9099  138.6536  161.5763 N.3     1  UNL1       -0.2934
      8 H         137.4900  138.0944  162.3187 H       1  UNL1        0.1236
      9 C         139.2108  137.9962  161.2219 C.3     1  UNL1        0.1152
     10 O         145.9246  141.6809  162.6702 O.2     1  UNL1       -0.2707
     11 C         144.8931  140.6616  163.0538 C.2     1  UNL1        0.2718
     12 C         145.0682  139.8512  164.3039 C.3     1  UNL1        0.2898
     13 O         144.0367  138.8320  164.6875 O.3     1  UNL1       -0.4628
     14 C         142.8302  138.6230  163.8211 C.ar    1  UNL1        0.1708
     15 C         141.7988  137.6037  164.2048 C.ar    1  UNL1        0.0411
     16 C         140.5923  137.3948  163.3384 C.ar    1  UNL1        0.0193
     17 C         140.4172  138.2051  162.0883 C.ar    1  UNL1        0.0765
     18 N         141.4487  139.2244  161.7046 N.ar    1  UNL1       -0.2304
     19 C         142.6552  139.4333  162.5711 C.ar    1  UNL1        0.1682
     20 N         143.6866  140.4526  162.1874 N.am    1  UNL1       -0.2639
     21 H         143.5717  140.9845  161.3670 H       1  UNL1        0.1565
     22 C         137.8417  144.3527  163.4512 C.3     1  UNL1        0.0942
     23 C         138.9093  144.8493  164.3806 C.3     1  UNL1        0.1157
     24 N         140.3423  144.4729  164.1461 N.am    1  UNL1       -0.2515
     25 C         141.0729  145.0098  162.9512 C.2     1  UNL1        0.2740
     26 O         140.3704  145.9231  161.9906 O.2     1  UNL1       -0.2705
     27 C         142.5058  144.6336  162.7167 C.3     1  UNL1        0.2900
     28 O         143.2083  143.7203  163.6772 O.3     1  UNL1       -0.4643
     29 C         142.4777  143.1833  164.8722 C.ar    1  UNL1        0.1528
     30 C         143.1801  142.2701  165.8327 C.ar    1  UNL1        0.0387
     31 C         142.4495  141.7332  167.0277 C.ar    1  UNL1        0.0099
     32 C         141.0165  142.1095  167.2622 C.ar    1  UNL1        0.0360
     33 BR        140.2860  141.5725  168.4571 Br      1  UNL1       -0.0490
     34 C         140.3141  143.0227  166.3016 C.ar    1  UNL1        0.0247
     35 C         141.0447  143.5597  165.1067 C.ar    1  UNL1        0.0886
@<TRIPOS>BOND
     1    10    11    2
     2    11    12    1
     3    12    13    1
     4    13    14    1
     5    14    15   ar
     6    15    16   ar
     7    16    17   ar
     8    17     9    1
     9     9     7    1
    10     7     1    1
    11     1     2    1
    12     2     3    1
    13     3     4    1
    14     4    22    1
    15    22    23    1
    16    23    24    1
    17    24    25   am
    18    25    26    2
    19    25    27    1
    20    27    28    1
    21    28    29    1
    22    29    30   ar
    23    30    31   ar
    24    31    32   ar
    25    32    33    1
    26    32    34   ar
    27    34    35   ar
    28     4     5    1
    29     5     6    1
    30    17    18   ar
    31    18    19   ar
    32    19    20    1
    33    20    11   am
    34    19    14   ar
    35     6     1    1
    36    35    24    1
    37    35    29   ar
    38     7     8    1
    39    20    21    1
@<TRIPOS>MOLECULE
*****
 35 39 0 0 0
SMALL
GASTEIGER

@<TRIPOS>ATOM
      1 C         144.3363  139.7787  163.3494 C.3     1  UNL1        0.0570
      2 C         144.0393  139.4980  164.7927 C.3     1  UNL1        0.0331
      3 C         142.8225  138.7050  165.1677 C.3     1  UNL1        0.0735
      4 N         141.9027  138.1927  164.0993 N.3     1  UNL1       -0.2711
      5 C         142.1996  138.4733  162.6560 C.3     1  UNL1        0.0735
      6 C         143.4164  139.2663  162.2811 C.3     1  UNL1        0.0331
      7 N         145.5530  140.5716  162.9745 N.3     1  UNL1       -0.2934
      8 H         146.3523  140.1045  163.4025 H       1  UNL1        0.1236
      9 C         145.6478  142.0214  163.3478 C.3     1  UNL1        0.1152
     10 O         140.3450  145.5010  158.8177 O.2     1  UNL1       -0.2707
     11 C         140.9164  145.2338  160.1786 C.2     1  UNL1        0.2718
     12 C         140.2916  145.8592  161.3904 C.3     1  UNL1        0.2898
     13 O         140.8630  145.5920  162.7513 O.3     1  UNL1       -0.4628
     14 C         142.0592  144.6994  162.9004 C.ar    1  UNL1        0.1708
     15 C         142.6306  144.4322  164.2613 C.ar    1  UNL1        0.0411
     16 C         143.8268  143.5395  164.4105 C.ar    1  UNL1        0.0193
     17 C         144.4516  142.9140  163.1986 C.ar    1  UNL1        0.0765
     18 N         143.8802  143.1812  161.8377 N.ar    1  UNL1       -0.2304
     19 C         142.6840  144.0739  161.6886 C.ar    1  UNL1        0.1682
     20 N         142.1126  144.3412  160.3277 N.am    1  UNL1       -0.2639
     21 H         142.5227  143.9307  159.5324 H       1  UNL1        0.1565
     22 C         140.6859  137.3997  164.4743 C.3     1  UNL1        0.0942
     23 C         139.4257  138.1058  164.8784 C.3     1  UNL1        0.1157
     24 N         138.9579  139.3050  164.1082 N.am    1  UNL1       -0.2515
     25 C         138.2691  139.1263  162.7877 C.2     1  UNL1        0.2740
     26 O         138.0481  137.7484  162.2375 O.2     1  UNL1       -0.2705
     27 C         137.8013  140.3254  162.0175 C.3     1  UNL1        0.2900
     28 O         138.0223  141.7033  162.5678 O.3     1  UNL1       -0.4643
     29 C         138.7111  141.8820  163.8882 C.ar    1  UNL1        0.1528
     30 C         138.9322  143.2598  164.4384 C.ar    1  UNL1        0.0387
     31 C         139.6210  143.4384  165.7589 C.ar    1  UNL1        0.0099
     32 C         140.0888  142.2393  166.5291 C.ar    1  UNL1        0.0360
     33 BR        140.7777  142.4180  167.8495 Br      1  UNL1       -0.0490
     34 C         139.8678  140.8615  165.9789 C.ar    1  UNL1        0.0247
     35 C         139.1790  140.6828  164.6584 C.ar    1  UNL1        0.0886
@<TRIPOS>BOND
     1    10    11    2
     2    11    12    1
     3    12    13    1
     4    13    14    1
     5    14    15   ar
     6    15    16   ar
     7    16    17   ar
     8    17     9    1
     9     9     7    1
    10     7     1    1
    11     1     2    1
    12     2     3    1
    13     3     4    1
    14     4    22    1
    15    22    23    1
    16    23    24    1
    17    24    25   am
    18    25    26    2
    19    25    27    1
    20    27    28    1
    21    28    29    1
    22    29    30   ar
    23    30    31   ar
    24    31    32   ar
    25    32    33    1
    26    32    34   ar
    27    34    35   ar
    28     4     5    1
    29     5     6    1
    30    17    18   ar
    31    18    19   ar
    32    19    20    1
    33    20    11   am
    34    19    14   ar
    35     6     1    1
    36    35    24    1
    37    35    29   ar
    38     7     8    1
    39    20    21    1
@<TRIPOS>MOLECULE
*****
 35 39 0 0 0
SMALL
GASTEIGER

@<TRIPOS>ATOM
      1 C         143.8872  143.6197  162.3482 C.3     1  UNL1        0.0570
      2 C         142.8468  143.5430  161.2705 C.3     1  UNL1        0.0331
      3 C         141.4864  144.1329  161.4979 C.3     1  UNL1        0.0735
      4 N         141.1666  144.7994  162.8030 N.3     1  UNL1       -0.2711
      5 C         142.2071  144.8761  163.8808 C.3     1  UNL1        0.0735
      6 C         143.5674  144.2863  163.6534 C.3     1  UNL1        0.0331
      7 N         145.2475  143.0299  162.1208 N.3     1  UNL1       -0.2934
      8 H         145.3043  142.7943  161.1300 H       1  UNL1        0.1236
      9 C         145.6722  141.8087  162.8814 C.3     1  UNL1        0.1152
     10 O         139.3552  137.6439  161.0109 O.2     1  UNL1       -0.2707
     11 C         140.4543  137.9740  161.9767 C.2     1  UNL1        0.2718
     12 C         140.5470  137.2460  163.2849 C.3     1  UNL1        0.2898
     13 O         141.6461  137.5762  164.2508 O.3     1  UNL1       -0.4628
     14 C         142.6526  138.6343  163.9085 C.ar    1  UNL1        0.1708
     15 C         143.7518  138.9644  164.8743 C.ar    1  UNL1        0.0411
     16 C         144.7583  140.0226  164.5320 C.ar    1  UNL1        0.0193
     17 C         144.6657  140.7506  163.2237 C.ar    1  UNL1        0.0765
     18 N         143.5665  140.4205  162.2579 N.ar    1  UNL1       -0.2304
     19 C         142.5600  139.3623  162.6003 C.ar    1  UNL1        0.1682
     20 N         141.4608  139.0321  161.6344 N.am    1  UNL1       -0.2639
     21 H         141.4001  139.5099  160.7758 H       1  UNL1        0.1565
     22 C         139.8064  145.3892  163.0305 C.3     1  UNL1        0.0942
     23 C         138.7848  144.6332  163.8272 C.3     1  UNL1        0.1157
     24 N         138.7277  143.1365  163.7458 N.am    1  UNL1       -0.2515
     25 C         138.1550  142.4729  162.5286 C.2     1  UNL1        0.2740
     26 O         137.6395  143.3061  161.3927 O.2     1  UNL1       -0.2705
     27 C         138.0978  140.9763  162.4471 C.3     1  UNL1        0.2900
     28 O         138.6133  140.1431  163.5830 O.3     1  UNL1       -0.4643
     29 C         139.1860  140.8066  164.8003 C.ar    1  UNL1        0.1528
     30 C         139.7015  139.9735  165.9361 C.ar    1  UNL1        0.0387
     31 C         140.2742  140.6371  167.1534 C.ar    1  UNL1        0.0099
     32 C         140.3313  142.1338  167.2348 C.ar    1  UNL1        0.0360
     33 BR        140.9040  142.7973  168.4521 Br      1  UNL1       -0.0490
     34 C         139.8158  142.9670  166.0989 C.ar    1  UNL1        0.0247
     35 C         139.2432  142.3034  164.8817 C.ar    1  UNL1        0.0886
@<TRIPOS>BOND
     1    10    11    2
     2    11    12    1
     3    12    13    1
     4    13    14    1
     5    14    15   ar
     6    15    16   ar
     7    16    17   ar
     8    17     9    1
     9     9     7    1
    10     7     1    1
    11     1     2    1
    12     2     3    1
    13     3     4    1
    14     4    22    1
    15    22    23    1
    16    23    24    1
    17    24    25   am
    18    25    26    2
    19    25    27    1
    20    27    28    1
    21    28    29    1
    22    29    30   ar
    23    30    31   ar
    24    31    32   ar
    25    32    33    1
    26    32    34   ar
    27    34    35   ar
    28     4     5    1
    29     5     6    1
    30    17    18   ar
    31    18    19   ar
    32    19    20    1
    33    20    11   am
    34    19    14   ar
    35     6     1    1
    36    35    24    1
    37    35    29   ar
    38     7     8    1
    39    20    21    1
@<TRIPOS>MOLECULE
*****
 35 39 0 0 0
SMALL
GASTEIGER

@<TRIPOS>ATOM
      1 C         141.5528  137.6794  162.3625 C.3     1  UNL1        0.0570
      2 C         141.9436  137.5303  163.8030 C.3     1  UNL1        0.0331
      3 C         140.9117  137.6880  164.8802 C.3     1  UNL1        0.0735
      4 N         139.4890  137.9947  164.5169 N.3     1  UNL1       -0.2711
      5 C         139.0983  138.1439  163.0764 C.3     1  UNL1        0.0735
      6 C         140.1302  137.9862  161.9992 C.3     1  UNL1        0.0331
      7 N         142.5847  137.5218  161.2853 N.3     1  UNL1       -0.2934
      8 H         142.9749  136.5848  161.3862 H       1  UNL1        0.1236
      9 C         143.7456  138.4690  161.2144 C.3     1  UNL1        0.1152
     10 O         145.2761  144.3071  166.1464 O.2     1  UNL1       -0.2707
     11 C         144.5920  143.7928  164.9145 C.2     1  UNL1        0.2718
     12 C         143.7340  144.7103  164.0947 C.3     1  UNL1        0.2898
     13 O         143.0499  144.1960  162.8628 O.3     1  UNL1       -0.4628
     14 C         143.2238  142.7643  162.4507 C.ar    1  UNL1        0.1708
     15 C         142.5397  142.2500  161.2188 C.ar    1  UNL1        0.0411
     16 C         142.7137  140.8183  160.8067 C.ar    1  UNL1        0.0193
     17 C         143.5717  139.9008  161.6265 C.ar    1  UNL1        0.0765
     18 N         144.2558  140.4150  162.8584 N.ar    1  UNL1       -0.2304
     19 C         144.0818  141.8468  163.2705 C.ar    1  UNL1        0.1682
     20 N         144.7659  142.3611  164.5024 N.am    1  UNL1       -0.2639
     21 H         145.3291  141.7590  165.0404 H       1  UNL1        0.1565
     22 C         138.4572  138.1524  165.5941 C.3     1  UNL1        0.0942
     23 C         138.2552  139.4863  166.2497 C.3     1  UNL1        0.1157
     24 N         139.1866  140.6215  165.9430 N.am    1  UNL1       -0.2515
     25 C         138.9103  141.5242  164.7773 C.2     1  UNL1        0.2740
     26 O         137.7027  141.2917  163.9183 O.2     1  UNL1       -0.2705
     27 C         139.8416  142.6593  164.4706 C.3     1  UNL1        0.2900
     28 O         141.0492  142.8918  165.3295 O.3     1  UNL1       -0.4643
     29 C         141.3254  141.9891  166.4952 C.ar    1  UNL1        0.1528
     30 C         142.5329  142.2216  167.3542 C.ar    1  UNL1        0.0387
     31 C         142.8092  141.3189  168.5199 C.ar    1  UNL1        0.0099
     32 C         141.8779  140.1837  168.8266 C.ar    1  UNL1        0.0360
     33 BR        142.1542  139.2810  169.9923 Br      1  UNL1       -0.0490
     34 C         140.6703  139.9512  167.9676 C.ar    1  UNL1        0.0247
     35 C         140.3941  140.8539  166.8019 C.ar    1  UNL1        0.0886
@<TRIPOS>BOND
     1    10    11    2
     2    11    12    1
     3    12    13    1
     4    13    14    1
     5    14    15   ar
     6    15    16   ar
     7    16    17   ar
     8    17     9    1
     9     9     7    1
    10     7     1    1
    11     1     2    1
    12     2     3    1
    13     3     4    1
    14     4    22    1
    15    22    23    1
    16    23    24    1
    17    24    25   am
    18    25    26    2
    19    25    27    1
    20    27    28    1
    21    28    29    1
    22    29    30   ar
    23    30    31   ar
    24    31    32   ar
    25    32    33    1
    26    32    34   ar
    27    34    35   ar
    28     4     5    1
    29     5     6    1
    30    17    18   ar
    31    18    19   ar
    32    19    20    1
    33    20    11   am
    34    19    14   ar
    35     6     1    1
    36    35    24    1
    37    35    29   ar
    38     7     8    1
    39    20    21    1
@<TRIPOS>MOLECULE
*****
 35 39 0 0 0
SMALL
GASTEIGER

@<TRIPOS>ATOM
      1 C         142.2818  144.5219  163.3891 C.3     1  UNL1        0.0570
      2 C         142.0587  143.7487  164.6550 C.3     1  UNL1        0.0331
      3 C         142.8093  142.4726  164.8966 C.3     1  UNL1        0.0735
      4 N         143.7830  141.9698  163.8725 N.3     1  UNL1       -0.2711
      5 C         144.0062  142.7431  162.6066 C.3     1  UNL1        0.0735
      6 C         143.2556  144.0191  162.3650 C.3     1  UNL1        0.0331
      7 N         141.5312  145.7978  163.1475 N.3     1  UNL1       -0.2934
      8 H         141.3044  146.1841  164.0639 H       1  UNL1        0.1236
      9 C         140.2562  145.7799  162.3575 C.3     1  UNL1        0.1152
     10 O         138.8007  139.2208  158.4066 O.2     1  UNL1       -0.2707
     11 C         138.5183  140.1279  159.5673 C.2     1  UNL1        0.2718
     12 C         137.4684  139.7558  160.5719 C.3     1  UNL1        0.2898
     13 O         137.1860  140.6630  161.7326 O.3     1  UNL1       -0.4628
     14 C         137.9535  141.9422  161.8889 C.ar    1  UNL1        0.1708
     15 C         137.6711  142.8493  163.0496 C.ar    1  UNL1        0.0411
     16 C         138.4386  144.1285  163.2059 C.ar    1  UNL1        0.0193
     17 C         139.4886  144.5007  162.2013 C.ar    1  UNL1        0.0765
     18 N         139.7710  143.5935  161.0405 N.ar    1  UNL1       -0.2304
     19 C         139.0034  142.3143  160.8843 C.ar    1  UNL1        0.1682
     20 N         139.2858  141.4072  159.7236 N.am    1  UNL1       -0.2639
     21 H         139.9750  141.6514  159.0643 H       1  UNL1        0.1565
     22 C         144.5336  140.6938  164.1141 C.3     1  UNL1        0.0942
     23 C         143.7971  139.4610  164.5472 C.3     1  UNL1        0.1157
     24 N         142.5978  138.9942  163.7767 N.am    1  UNL1       -0.2515
     25 C         142.7582  138.4880  162.3738 C.2     1  UNL1        0.2740
     26 O         144.1179  138.4487  161.7415 O.2     1  UNL1       -0.2705
     27 C         141.5589  138.0212  161.6032 C.3     1  UNL1        0.2900
     28 O         140.1992  138.0606  162.2355 O.3     1  UNL1       -0.4643
     29 C         140.0388  138.5667  163.6384 C.ar    1  UNL1        0.1528
     30 C         138.6792  138.6061  164.2707 C.ar    1  UNL1        0.0387
     31 C         138.5189  139.1123  165.6736 C.ar    1  UNL1        0.0099
     32 C         139.7181  139.5791  166.4441 C.ar    1  UNL1        0.0360
     33 BR        139.5578  140.0853  167.8470 Br      1  UNL1       -0.0490
     34 C         141.0778  139.5397  165.8118 C.ar    1  UNL1        0.0247
     35 C         141.2382  139.0336  164.4090 C.ar    1  UNL1        0.0886
@<TRIPOS>BOND
     1    10    11    2
     2    11    12    1
     3    12    13    1
     4    13    14    1
     5    14    15   ar
     6    15    16   ar
     7    16    17   ar
     8    17     9    1
     9     9     7    1
    10     7     1    1
    11     1     2    1
    12     2     3    1
    13     3     4    1
    14     4    22    1
    15    22    23    1
    16    23    24    1
    17    24    25   am
    18    25    26    2
    19    25    27    1
    20    27    28    1
    21    28    29    1
    22    29    30   ar
    23    30    31   ar
    24    31    32   ar
    25    32    33    1
    26    32    34   ar
    27    34    35   ar
    28     4     5    1
    29     5     6    1
    30    17    18   ar
    31    18    19   ar
    32    19    20    1
    33    20    11   am
    34    19    14   ar
    35     6     1    1
    36    35    24    1
    37    35    29   ar
    38     7     8    1
    39    20    21    1
@<TRIPOS>MOLECULE
*****
 35 39 0 0 0
SMALL
GASTEIGER

@<TRIPOS>ATOM
      1 C         142.6208  143.9267  164.2466 C.3     1  UNL1        0.0570
      2 C         142.0693  144.5460  162.9967 C.3     1  UNL1        0.0331
      3 C         140.5904  144.5387  162.7455 C.3     1  UNL1        0.0735
      4 N         139.6631  143.9121  163.7443 N.3     1  UNL1       -0.2711
      5 C         140.2147  143.2928  164.9943 C.3     1  UNL1        0.0735
      6 C         141.6935  143.3001  165.2454 C.3     1  UNL1        0.0331
      7 N         144.0995  143.9339  164.4977 N.3     1  UNL1       -0.2934
      8 H         144.5279  144.4351  163.7194 H       1  UNL1        0.1236
      9 C         144.8425  142.6386  164.6401 C.3     1  UNL1        0.1152
     10 O         143.3813  138.7631  158.0374 O.2     1  UNL1       -0.2707
     11 C         143.3734  138.8253  159.5361 C.2     1  UNL1        0.2718
     12 C         142.8706  137.6580  160.3326 C.3     1  UNL1        0.2898
     13 O         142.8628  137.7202  161.8313 O.3     1  UNL1       -0.4628
     14 C         143.3577  138.9498  162.5335 C.ar    1  UNL1        0.1708
     15 C         143.3498  139.0120  164.0322 C.ar    1  UNL1        0.0411
     16 C         143.8448  140.2416  164.7344 C.ar    1  UNL1        0.0193
     17 C         144.3476  141.4090  163.9379 C.ar    1  UNL1        0.0765
     18 N         144.3554  141.3468  162.4392 N.ar    1  UNL1       -0.2304
     19 C         143.8605  140.1171  161.7370 C.ar    1  UNL1        0.1682
     20 N         143.8683  140.0549  160.2383 N.am    1  UNL1       -0.2639
     21 H         144.1983  140.8211  159.7155 H       1  UNL1        0.1565
     22 C         138.1843  143.9049  163.4932 C.3     1  UNL1        0.0942
     23 C         137.5000  142.6357  163.0800 C.3     1  UNL1        0.1157
     24 N         138.2869  141.5372  162.4285 N.am    1  UNL1       -0.2515
     25 C         138.7532  141.6878  161.0109 C.2     1  UNL1        0.2740
     26 O         138.4328  142.9369  160.2446 O.2     1  UNL1       -0.2705
     27 C         139.5400  140.5894  160.3594 C.3     1  UNL1        0.2900
     28 O         139.8604  139.3402  161.1257 O.3     1  UNL1       -0.4643
     29 C         139.3941  139.1896  162.5433 C.ar    1  UNL1        0.1528
     30 C         139.7145  137.9405  163.3096 C.ar    1  UNL1        0.0387
     31 C         139.2481  137.7899  164.7272 C.ar    1  UNL1        0.0099
     32 C         138.4613  138.8883  165.3787 C.ar    1  UNL1        0.0360
     33 BR        137.9950  138.7377  166.7964 Br      1  UNL1       -0.0490
     34 C         138.1409  140.1375  164.6124 C.ar    1  UNL1        0.0247
     35 C         138.6073  140.2881  163.1948 C.ar    1  UNL1        0.0886
@<TRIPOS>BOND
     1    10    11    2
     2    11    12    1
     3    12    13    1
     4    13    14    1
     5    14    15   ar
     6    15    16   ar
     7    16    17   ar
     8    17     9    1
     9     9     7    1
    10     7     1    1
    11     1     2    1
    12     2     3    1
    13     3     4    1
    14     4    22    1
    15    22    23    1
    16    23    24    1
    17    24    25   am
    18    25    26    2
    19    25    27    1
    20    27    28    1
    21    28    29    1
    22    29    30   ar
    23    30    31   ar
    24    31    32   ar
    25    32    33    1
    26    32    34   ar
    27    34    35   ar
    28     4     5    1
    29     5     6    1
    30    17    18   ar
    31    18    19   ar
    32    19    20    1
    33    20    11   am
    34    19    14   ar
    35     6     1    1
    36    35    24    1
    37    35    29   ar
    38     7     8    1
    39    20    21    1
@<TRIPOS>MOLECULE
*****
 35 39 0 0 0
SMALL
GASTEIGER

@<TRIPOS>ATOM
      1 C         144.6653  142.5650  161.8887 C.3     1  UNL1        0.0570
      2 C         143.8150  143.5756  162.5998 C.3     1  UNL1        0.0331
      3 C         142.7618  144.3328  161.8464 C.3     1  UNL1        0.0735
      4 N         142.5590  144.0794  160.3820 N.3     1  UNL1       -0.2711
      5 C         143.4093  143.0687  159.6709 C.3     1  UNL1        0.0735
      6 C         144.4624  142.3116  160.4243 C.3     1  UNL1        0.0331
      7 N         145.7184  141.8079  162.6421 N.3     1  UNL1       -0.2934
      8 H         146.2334  141.2572  161.9551 H       1  UNL1        0.1236
      9 C         145.3237  140.8680  163.7425 C.3     1  UNL1        0.1152
     10 O         138.0705  139.0814  165.9671 O.2     1  UNL1       -0.2707
     11 C         139.2572  138.8315  165.0843 C.2     1  UNL1        0.2718
     12 C         139.2129  137.7363  164.0604 C.3     1  UNL1        0.2898
     13 O         140.3997  137.4865  163.1776 O.3     1  UNL1       -0.4628
     14 C         141.6307  138.3319  163.3188 C.ar    1  UNL1        0.1708
     15 C         142.8174  138.0820  162.4361 C.ar    1  UNL1        0.0411
     16 C         144.0484  138.9274  162.5773 C.ar    1  UNL1        0.0193
     17 C         144.0927  140.0226  163.6013 C.ar    1  UNL1        0.0765
     18 N         142.9060  140.2725  164.4840 N.ar    1  UNL1       -0.2304
     19 C         141.6749  139.4270  164.3428 C.ar    1  UNL1        0.1682
     20 N         140.4882  139.6769  165.2255 N.am    1  UNL1       -0.2639
     21 H         140.5173  140.3957  165.8976 H       1  UNL1        0.1565
     22 C         141.5058  144.8365  159.6286 C.3     1  UNL1        0.0942
     23 C         140.0912  144.8507  160.1271 C.3     1  UNL1        0.1157
     24 N         139.3585  143.5594  160.3414 N.am    1  UNL1       -0.2515
     25 C         139.1633  142.6091  159.1973 C.2     1  UNL1        0.2740
     26 O         139.7008  142.9501  157.8390 O.2     1  UNL1       -0.2705
     27 C         138.4307  141.3179  159.4115 C.3     1  UNL1        0.2900
     28 O         137.8932  140.9769  160.7698 O.3     1  UNL1       -0.4643
     29 C         138.0884  141.9272  161.9139 C.ar    1  UNL1        0.1528
     30 C         137.5510  141.5862  163.2721 C.ar    1  UNL1        0.0387
     31 C         137.7462  142.5365  164.4162 C.ar    1  UNL1        0.0099
     32 C         138.4788  143.8277  164.2020 C.ar    1  UNL1        0.0360
     33 BR        138.6741  144.7780  165.3460 Br      1  UNL1       -0.0490
     34 C         139.0163  144.1687  162.8437 C.ar    1  UNL1        0.0247
     35 C         138.8211  143.2184  161.6996 C.ar    1  UNL1        0.0886
@<TRIPOS>BOND
     1    10    11    2
     2    11    12    1
     3    12    13    1
     4    13    14    1
     5    14    15   ar
     6    15    16   ar
     7    16    17   ar
     8    17     9    1
     9     9     7    1
    10     7     1    1
    11     1     2    1
    12     2     3    1
    13     3     4    1
    14     4    22    1
    15    22    23    1
    16    23    24    1
    17    24    25   am
    18    25    26    2
    19    25    27    1
    20    27    28    1
    21    28    29    1
    22    29    30   ar
    23    30    31   ar
    24    31    32   ar
    25    32    33    1
    26    32    34   ar
    27    34    35   ar
    28     4     5    1
    29     5     6    1
    30    17    18   ar
    31    18    19   ar
    32    19    20    1
    33    20    11   am
    34    19    14   ar
    35     6     1    1
    36    35    24    1
    37    35    29   ar
    38     7     8    1
    39    20    21    1
@<TRIPOS>MOLECULE
*****
 35 39 0 0 0
SMALL
GASTEIGER

@<TRIPOS>ATOM
      1 C         141.8690  138.1277  162.0553 C.3     1  UNL1        0.0570
      2 C         143.3674  138.1883  162.0845 C.3     1  UNL1        0.0331
      3 C         144.0859  139.3149  161.4027 C.3     1  UNL1        0.0735
      4 N         143.3059  140.3807  160.6918 N.3     1  UNL1       -0.2711
      5 C         141.8073  140.3200  160.6626 C.3     1  UNL1        0.0735
      6 C         141.0889  139.1935  161.3443 C.3     1  UNL1        0.0331
      7 N         141.1506  137.0011  162.7370 N.3     1  UNL1       -0.2934
      8 H         140.1734  137.0588  162.4503 H       1  UNL1        0.1236
      9 C         141.1577  136.9037  164.2339 C.3     1  UNL1        0.1152
     10 O         143.6971  142.6981  168.7865 O.2     1  UNL1       -0.2707
     11 C         142.5707  141.9829  168.1010 C.2     1  UNL1        0.2718
     12 C         141.1645  142.4840  168.2476 C.3     1  UNL1        0.2898
     13 O         140.0382  141.7688  167.5621 O.3     1  UNL1       -0.4628
     14 C         140.3181  140.5526  166.7301 C.ar    1  UNL1        0.1708
     15 C         139.1918  139.8374  166.0446 C.ar    1  UNL1        0.0411
     16 C         139.4716  138.6211  165.2125 C.ar    1  UNL1        0.0193
     17 C         140.8779  138.1200  165.0659 C.ar    1  UNL1        0.0765
     18 N         142.0042  138.8352  165.7514 N.ar    1  UNL1       -0.2304
     19 C         141.7243  140.0515  166.5835 C.ar    1  UNL1        0.1682
     20 N         142.8506  140.7667  167.2690 N.am    1  UNL1       -0.2639
     21 H         143.7735  140.4378  167.1728 H       1  UNL1        0.1565
     22 C         144.0243  141.5073  160.0101 C.3     1  UNL1        0.0942
     23 C         144.7207  142.5556  160.8261 C.3     1  UNL1        0.1157
     24 N         144.2236  142.8880  162.2018 N.am    1  UNL1       -0.2515
     25 C         144.9740  142.4050  163.4075 C.2     1  UNL1        0.2740
     26 O         146.2214  141.5894  163.2374 O.2     1  UNL1       -0.2705
     27 C         144.4769  142.7374  164.7831 C.3     1  UNL1        0.2900
     28 O         143.2295  143.5530  164.9531 O.3     1  UNL1       -0.4643
     29 C         142.4792  144.0361  163.7475 C.ar    1  UNL1        0.1528
     30 C         141.2318  144.8516  163.9174 C.ar    1  UNL1        0.0387
     31 C         140.4815  145.3347  162.7118 C.ar    1  UNL1        0.0099
     32 C         140.9785  145.0023  161.3362 C.ar    1  UNL1        0.0360
     33 BR        140.2281  145.4854  160.1305 Br      1  UNL1       -0.0490
     34 C         142.2259  144.1867  161.1661 C.ar    1  UNL1        0.0247
     35 C         142.9763  143.7036  162.3718 C.ar    1  UNL1        0.0886
@<TRIPOS>BOND
     1    10    11    2
     2    11    12    1
     3    12    13    1
     4    13    14    1
     5    14    15   ar
     6    15    16   ar
     7    16    17   ar
     8    17     9    1
     9     9     7    1
    10     7     1    1
    11     1     2    1
    12     2     3    1
    13     3     4    1
    14     4    22    1
    15    22    23    1
    16    23    24    1
    17    24    25   am
    18    25    26    2
    19    25    27    1
    20    27    28    1
    21    28    29    1
    22    29    30   ar
    23    30    31   ar
    24    31    32   ar
    25    32    33    1
    26    32    34   ar
    27    34    35   ar
    28     4     5    1
    29     5     6    1
    30    17    18   ar
    31    18    19   ar
    32    19    20    1
    33    20    11   am
    34    19    14   ar
    35     6     1    1
    36    35    24    1
    37    35    29   ar
    38     7     8    1
    39    20    21    1
@<TRIPOS>MOLECULE
*****
 35 39 0 0 0
SMALL
GASTEIGER

@<TRIPOS>ATOM
      1 C         140.1875  137.9802  162.0741 C.3     1  UNL1        0.0570
      2 C         140.7188  137.6705  163.4422 C.3     1  UNL1        0.0331
      3 C         142.1354  138.0176  163.7930 C.3     1  UNL1        0.0735
      4 N         143.0206  138.6743  162.7755 N.3     1  UNL1       -0.2711
      5 C         142.4892  138.9840  161.4074 C.3     1  UNL1        0.0735
      6 C         141.0727  138.6369  161.0567 C.3     1  UNL1        0.0331
      7 N         138.7710  137.6331  161.7234 N.3     1  UNL1       -0.2934
      8 H         138.7934  137.2036  160.7985 H       1  UNL1        0.1236
      9 C         137.7251  138.7073  161.6769 C.3     1  UNL1        0.1152
     10 O         139.2246  146.3551  161.5633 O.2     1  UNL1       -0.2707
     11 C         138.9434  145.0977  162.3313 C.2     1  UNL1        0.2718
     12 C         138.8810  145.1322  163.8296 C.3     1  UNL1        0.2898
     13 O         138.5999  143.8748  164.5977 O.3     1  UNL1       -0.4628
     14 C         138.3812  142.5829  163.8675 C.ar    1  UNL1        0.1708
     15 C         138.1001  141.3256  164.6356 C.ar    1  UNL1        0.0411
     16 C         137.8814  140.0337  163.9054 C.ar    1  UNL1        0.0193
     17 C         137.9438  139.9992  162.4071 C.ar    1  UNL1        0.0765
     18 N         138.2249  141.2565  161.6390 N.ar    1  UNL1       -0.2304
     19 C         138.4436  142.5485  162.3693 C.ar    1  UNL1        0.1682
     20 N         138.7247  143.8058  161.6012 N.am    1  UNL1       -0.2639
     21 H         138.7657  143.7832  160.6178 H       1  UNL1        0.1565
     22 C         144.4371  139.0214  163.1262 C.3     1  UNL1        0.0942
     23 C         144.7211  140.1625  164.0574 C.3     1  UNL1        0.1157
     24 N         143.7452  141.2957  164.1746 N.am    1  UNL1       -0.2515
     25 C         143.6374  142.3094  163.0742 C.2     1  UNL1        0.2740
     26 O         144.5055  142.1899  161.8567 O.2     1  UNL1       -0.2705
     27 C         142.6616  143.4426  163.1913 C.3     1  UNL1        0.2900
     28 O         141.7936  143.5621  164.4089 O.3     1  UNL1       -0.4643
     29 C         141.9014  142.5484  165.5092 C.ar    1  UNL1        0.1528
     30 C         141.0334  142.6678  166.7267 C.ar    1  UNL1        0.0387
     31 C         141.1411  141.6541  167.8270 C.ar    1  UNL1        0.0099
     32 C         142.1169  140.5210  167.7099 C.ar    1  UNL1        0.0360
     33 BR        142.2247  139.5073  168.8103 Br      1  UNL1       -0.0490
     34 C         142.9850  140.4015  166.4924 C.ar    1  UNL1        0.0247
     35 C         142.8772  141.4152  165.3921 C.ar    1  UNL1        0.0886
@<TRIPOS>BOND
     1    10    11    2
     2    11    12    1
     3    12    13    1
     4    13    14    1
     5    14    15   ar
     6    15    16   ar
     7    16    17   ar
     8    17     9    1
     9     9     7    1
    10     7     1    1
    11     1     2    1
    12     2     3    1
    13     3     4    1
    14     4    22    1
    15    22    23    1
    16    23    24    1
    17    24    25   am
    18    25    26    2
    19    25    27    1
    20    27    28    1
    21    28    29    1
    22    29    30   ar
    23    30    31   ar
    24    31    32   ar
    25    32    33    1
    26    32    34   ar
    27    34    35   ar
    28     4     5    1
    29     5     6    1
    30    17    18   ar
    31    18    19   ar
    32    19    20    1
    33    20    11   am
    34    19    14   ar
    35     6     1    1
    36    35    24    1
    37    35    29   ar
    38     7     8    1
    39    20    21    1
