@<TRIPOS>MOLECULE
*****
 32 35 0 0 0
SMALL
GASTEIGER

@<TRIPOS>ATOM
      1 C         141.1960  140.9944  166.8284 C.3     1  UNL1        0.0667
      2 C         140.0011  140.4476  167.5516 C.3     1  UNL1        0.0337
      3 C         139.8463  140.6782  169.0257 C.3     1  UNL1        0.0735
      4 N         140.8865  141.4555  169.7765 N.3     1  UNL1       -0.2714
      5 C         140.7318  141.6861  171.2506 C.3     1  UNL1        0.0896
      6 C         142.0815  142.0023  169.0532 C.3     1  UNL1        0.0735
      7 C         142.2362  141.7718  167.5792 C.3     1  UNL1        0.0337
      8 N         140.4851  140.3263  165.6889 N.3     1  UNL1       -0.2711
      9 C         139.0062  140.5088  165.5173 C.3     1  UNL1        0.0897
     10 C         138.2953  139.8407  164.3779 C.3     1  UNL1        0.0899
     11 N         139.0634  138.9902  163.4101 N.3     1  UNL1       -0.2665
     12 C         140.5423  138.8077  163.5817 C.3     1  UNL1        0.0899
     13 C         141.2531  139.4758  164.7211 C.3     1  UNL1        0.0897
     14 C         138.3524  138.3221  162.2706 C.3     1  UNL1        0.0992
     15 C         138.5395  138.8270  160.8706 C.ar    1  UNL1       -0.0061
     16 C         139.5754  138.2056  159.9814 C.ar    1  UNL1       -0.0029
     17 C         139.7625  138.7105  158.5813 C.ar    1  UNL1       -0.0003
     18 C         138.9136  139.8367  158.0705 C.ar    1  UNL1       -0.0000
     19 C         137.8776  140.4581  158.9597 C.ar    1  UNL1       -0.0003
     20 C         137.6905  139.9532  160.3597 C.ar    1  UNL1       -0.0029
     21 C         142.1441  141.3092  165.7094 C.3     1  UNL1        0.1128
     22 C         143.3602  143.4347  164.8417 C.2     1  UNL1        0.2294
     23 O         144.6711  142.8758  165.3099 O.2     1  UNL1       -0.2745
     24 N         142.0967  142.6514  165.0414 N.am    1  UNL1       -0.2573
     25 C         140.7858  143.2103  164.5732 C.ar    1  UNL1        0.0539
     26 C         139.9490  144.0387  165.5025 C.ar    1  UNL1        0.0149
     27 C         138.6381  144.5977  165.0343 C.ar    1  UNL1        0.0013
     28 C         138.1641  144.3281  163.6369 C.ar    1  UNL1        0.0001
     29 C         139.0009  143.4997  162.7078 C.ar    1  UNL1        0.0013
     30 C         140.3118  142.9408  163.1759 C.ar    1  UNL1        0.0149
     31 C         143.6341  144.8999  162.7137 C.3     1  UNL1        0.0101
     32 C         143.3130  144.7769  164.1737 C.3     1  UNL1        0.0856
@<TRIPOS>BOND
     1    31    32    1
     2    32    22    1
     3    22    23    2
     4    22    24   am
     5    24    21    1
     6    21     1    1
     7     1     8    1
     8     8     9    1
     9     9    10    1
    10    10    11    1
    11    11    14    1
    12    14    15    1
    13    15    16   ar
    14    16    17   ar
    15    17    18   ar
    16    18    19   ar
    17    19    20   ar
    18    11    12    1
    19    12    13    1
    20     1     2    1
    21     2     3    1
    22     3     4    1
    23     4     5    1
    24     4     6    1
    25     6     7    1
    26    24    25    1
    27    25    26   ar
    28    26    27   ar
    29    27    28   ar
    30    28    29   ar
    31    29    30   ar
    32     7     1    1
    33    30    25   ar
    34    13     8    1
    35    20    15   ar
@<TRIPOS>MOLECULE
*****
 32 35 0 0 0
SMALL
GASTEIGER

@<TRIPOS>ATOM
      1 C         141.0032  139.8626  162.2676 C.3     1  UNL1        0.0667
      2 C         139.7331  139.0783  162.1202 C.3     1  UNL1        0.0337
      3 C         139.3078  138.5867  160.7685 C.3     1  UNL1        0.0735
      4 N         140.1526  138.8793  159.5640 N.3     1  UNL1       -0.2714
      5 C         139.7272  138.3876  158.2122 C.3     1  UNL1        0.0896
      6 C         141.4226  139.6636  159.7113 C.3     1  UNL1        0.0735
      7 C         141.8480  140.1553  161.0631 C.3     1  UNL1        0.0337
      8 N         140.5442  139.8396  163.6955 N.3     1  UNL1       -0.2711
      9 C         139.1036  140.0971  164.0244 C.3     1  UNL1        0.0897
     10 C         138.6446  140.0741  165.4522 C.3     1  UNL1        0.0899
     11 N         139.6263  139.7935  166.5512 N.3     1  UNL1       -0.2665
     12 C         141.0669  139.5360  166.2222 C.3     1  UNL1        0.0899
     13 C         141.5259  139.5590  164.7944 C.3     1  UNL1        0.0897
     14 C         139.1673  139.7705  167.9791 C.3     1  UNL1        0.0992
     15 C         139.8682  140.6098  169.0058 C.ar    1  UNL1       -0.0061
     16 C         140.3215  139.9934  170.2960 C.ar    1  UNL1       -0.0029
     17 C         141.0224  140.8328  171.3227 C.ar    1  UNL1       -0.0003
     18 C         141.2700  142.2885  171.0593 C.ar    1  UNL1       -0.0000
     19 C         140.8167  142.9050  169.7691 C.ar    1  UNL1       -0.0003
     20 C         140.1158  142.0657  168.7424 C.ar    1  UNL1       -0.0029
     21 C         142.1139  140.6389  162.9108 C.3     1  UNL1        0.1128
     22 C         143.3055  142.8932  162.4123 C.2     1  UNL1        0.2294
     23 O         144.5319  142.1482  161.9752 O.2     1  UNL1       -0.2745
     24 N         142.0965  142.1385  162.8801 N.am    1  UNL1       -0.2573
     25 C         140.8701  142.8834  163.3172 C.ar    1  UNL1        0.0539
     26 C         140.6923  143.2545  164.7596 C.ar    1  UNL1        0.0149
     27 C         139.4659  143.9994  165.1967 C.ar    1  UNL1        0.0013
     28 C         138.4173  144.3732  164.1914 C.ar    1  UNL1        0.0001
     29 C         138.5951  144.0021  162.7490 C.ar    1  UNL1        0.0013
     30 C         139.8215  143.2572  162.3118 C.ar    1  UNL1        0.0149
     31 C         143.7155  145.1727  163.5895 C.3     1  UNL1        0.0101
     32 C         143.2881  144.3927  162.3816 C.3     1  UNL1        0.0856
@<TRIPOS>BOND
     1    31    32    1
     2    32    22    1
     3    22    23    2
     4    22    24   am
     5    24    21    1
     6    21     1    1
     7     1     8    1
     8     8     9    1
     9     9    10    1
    10    10    11    1
    11    11    14    1
    12    14    15    1
    13    15    16   ar
    14    16    17   ar
    15    17    18   ar
    16    18    19   ar
    17    19    20   ar
    18    11    12    1
    19    12    13    1
    20     1     2    1
    21     2     3    1
    22     3     4    1
    23     4     5    1
    24     4     6    1
    25     6     7    1
    26    24    25    1
    27    25    26   ar
    28    26    27   ar
    29    27    28   ar
    30    28    29   ar
    31    29    30   ar
    32     7     1    1
    33    30    25   ar
    34    13     8    1
    35    20    15   ar
@<TRIPOS>MOLECULE
*****
 32 35 0 0 0
SMALL
GASTEIGER

@<TRIPOS>ATOM
      1 C         140.5436  140.0525  162.0295 C.3     1  UNL1        0.0667
      2 C         141.2976  138.8151  162.4170 C.3     1  UNL1        0.0337
      3 C         142.0310  138.0259  161.3733 C.3     1  UNL1        0.0735
      4 N         142.0103  138.4742  159.9420 N.3     1  UNL1       -0.2714
      5 C         142.7436  137.6850  158.8983 C.3     1  UNL1        0.0896
      6 C         141.2563  139.7116  159.5544 C.3     1  UNL1        0.0735
      7 C         140.5229  140.5007  160.5981 C.3     1  UNL1        0.0337
      8 N         140.2693  140.0314  163.5041 N.3     1  UNL1       -0.2711
      9 C         138.8621  140.1605  164.0071 C.3     1  UNL1        0.0897
     10 C         138.5879  140.1395  165.4816 C.3     1  UNL1        0.0899
     11 N         139.7208  139.9894  166.4532 N.3     1  UNL1       -0.2665
     12 C         141.1280  139.8603  165.9501 C.3     1  UNL1        0.0899
     13 C         141.4023  139.8813  164.4756 C.3     1  UNL1        0.0897
     14 C         139.4465  139.9684  167.9278 C.3     1  UNL1        0.0992
     15 C         140.3387  140.7240  168.8674 C.ar    1  UNL1       -0.0061
     16 C         140.4324  142.2182  168.7742 C.ar    1  UNL1       -0.0029
     17 C         141.3246  142.9738  169.7140 C.ar    1  UNL1       -0.0003
     18 C         142.1231  142.2352  170.7468 C.ar    1  UNL1       -0.0000
     19 C         142.0295  140.7410  170.8400 C.ar    1  UNL1       -0.0003
     20 C         141.1373  139.9854  169.9004 C.ar    1  UNL1       -0.0029
     21 C         139.6943  141.2826  162.1540 C.3     1  UNL1        0.1128
     22 C         139.5875  143.6623  161.1170 C.2     1  UNL1        0.2294
     23 O         138.2641  143.3311  160.4933 O.2     1  UNL1       -0.2745
     24 N         140.3026  142.6380  161.9474 N.am    1  UNL1       -0.2573
     25 C         141.6260  142.9692  162.5711 C.ar    1  UNL1        0.0539
     26 C         142.8886  142.8197  161.7751 C.ar    1  UNL1        0.0149
     27 C         144.2120  143.1509  162.3988 C.ar    1  UNL1        0.0013
     28 C         144.2727  143.6317  163.8184 C.ar    1  UNL1        0.0001
     29 C         143.0101  143.7812  164.6142 C.ar    1  UNL1        0.0013
     30 C         141.6867  143.4500  163.9906 C.ar    1  UNL1        0.0149
     31 C         139.7689  146.1705  161.7700 C.3     1  UNL1        0.0101
     32 C         140.1957  145.0178  160.9102 C.3     1  UNL1        0.0856
@<TRIPOS>BOND
     1    31    32    1
     2    32    22    1
     3    22    23    2
     4    22    24   am
     5    24    21    1
     6    21     1    1
     7     1     8    1
     8     8     9    1
     9     9    10    1
    10    10    11    1
    11    11    14    1
    12    14    15    1
    13    15    16   ar
    14    16    17   ar
    15    17    18   ar
    16    18    19   ar
    17    19    20   ar
    18    11    12    1
    19    12    13    1
    20     1     2    1
    21     2     3    1
    22     3     4    1
    23     4     5    1
    24     4     6    1
    25     6     7    1
    26    24    25    1
    27    25    26   ar
    28    26    27   ar
    29    27    28   ar
    30    28    29   ar
    31    29    30   ar
    32     7     1    1
    33    30    25   ar
    34    13     8    1
    35    20    15   ar
@<TRIPOS>MOLECULE
*****
 32 35 0 0 0
SMALL
GASTEIGER

@<TRIPOS>ATOM
      1 C         140.0478  140.3794  162.2558 C.3     1  UNL1        0.0667
      2 C         140.7869  139.1135  161.9380 C.3     1  UNL1        0.0337
      3 C         140.6875  138.5108  160.5680 C.3     1  UNL1        0.0735
      4 N         139.8490  139.1741  159.5159 N.3     1  UNL1       -0.2714
      5 C         139.7497  138.5714  158.1459 C.3     1  UNL1        0.0896
      6 C         139.1099  140.4400  159.8337 C.3     1  UNL1        0.0735
      7 C         139.2092  141.0427  161.2037 C.3     1  UNL1        0.0337
      8 N         140.7094  140.1251  163.5779 N.3     1  UNL1       -0.2711
      9 C         142.1840  139.8575  163.6394 C.3     1  UNL1        0.0897
     10 C         142.8455  139.6033  164.9614 C.3     1  UNL1        0.0899
     11 N         142.0324  139.6167  166.2218 N.3     1  UNL1       -0.2665
     12 C         140.5578  139.8843  166.1603 C.3     1  UNL1        0.0899
     13 C         139.8963  140.1385  164.8383 C.3     1  UNL1        0.0897
     14 C         142.6940  139.3624  167.5439 C.3     1  UNL1        0.0992
     15 C         142.4606  140.2991  168.6919 C.ar    1  UNL1       -0.0061
     16 C         141.6644  139.8460  169.8797 C.ar    1  UNL1       -0.0029
     17 C         141.4309  140.7829  171.0277 C.ar    1  UNL1       -0.0003
     18 C         141.9936  142.1727  170.9879 C.ar    1  UNL1       -0.0000
     19 C         142.7898  142.6258  169.8001 C.ar    1  UNL1       -0.0003
     20 C         143.0233  141.6891  168.6521 C.ar    1  UNL1       -0.0029
     21 C         139.5384  141.5571  163.0328 C.3     1  UNL1        0.1128
     22 C         139.1608  144.0674  162.4805 C.2     1  UNL1        0.2294
     23 O         137.6783  143.8395  162.4582 O.2     1  UNL1       -0.2745
     24 N         140.0908  142.9262  162.7678 N.am    1  UNL1       -0.2573
     25 C         141.5732  143.1541  162.7900 C.ar    1  UNL1        0.0539
     26 C         142.2568  143.5180  164.0746 C.ar    1  UNL1        0.0149
     27 C         143.7393  143.7459  164.0969 C.ar    1  UNL1        0.0013
     28 C         144.5380  143.6098  162.8346 C.ar    1  UNL1        0.0001
     29 C         143.8543  143.2459  161.5500 C.ar    1  UNL1        0.0013
     30 C         142.3719  143.0180  161.5277 C.ar    1  UNL1        0.0149
     31 C         140.0746  145.8418  160.8171 C.3     1  UNL1        0.0101
     32 C         139.7131  145.4366  162.2154 C.3     1  UNL1        0.0856
@<TRIPOS>BOND
     1    31    32    1
     2    32    22    1
     3    22    23    2
     4    22    24   am
     5    24    21    1
     6    21     1    1
     7     1     8    1
     8     8     9    1
     9     9    10    1
    10    10    11    1
    11    11    14    1
    12    14    15    1
    13    15    16   ar
    14    16    17   ar
    15    17    18   ar
    16    18    19   ar
    17    19    20   ar
    18    11    12    1
    19    12    13    1
    20     1     2    1
    21     2     3    1
    22     3     4    1
    23     4     5    1
    24     4     6    1
    25     6     7    1
    26    24    25    1
    27    25    26   ar
    28    26    27   ar
    29    27    28   ar
    30    28    29   ar
    31    29    30   ar
    32     7     1    1
    33    30    25   ar
    34    13     8    1
    35    20    15   ar
@<TRIPOS>MOLECULE
*****
 32 35 0 0 0
SMALL
GASTEIGER

@<TRIPOS>ATOM
      1 C         142.5536  140.3036  161.8945 C.3     1  UNL1        0.0667
      2 C         142.5288  138.8118  162.0487 C.3     1  UNL1        0.0337
      3 C         142.5395  137.9319  160.8339 C.3     1  UNL1        0.0735
      4 N         142.5749  138.5440  159.4649 N.3     1  UNL1       -0.2714
      5 C         142.5856  137.6641  158.2501 C.3     1  UNL1        0.0896
      6 C         142.5997  140.0358  159.3107 C.3     1  UNL1        0.0735
      7 C         142.5891  140.9156  160.5255 C.3     1  UNL1        0.0337
      8 N         142.5231  140.1968  163.3904 N.3     1  UNL1       -0.2711
      9 C         143.4637  141.0192  164.2204 C.3     1  UNL1        0.0897
     10 C         143.4332  140.9124  165.7162 C.3     1  UNL1        0.0899
     11 N         142.4619  139.9833  166.3821 N.3     1  UNL1       -0.2665
     12 C         141.5213  139.1609  165.5522 C.3     1  UNL1        0.0899
     13 C         141.5519  139.2677  164.0564 C.3     1  UNL1        0.0897
     14 C         142.4314  139.8765  167.8781 C.3     1  UNL1        0.0992
     15 C         141.5960  140.8290  168.6811 C.ar    1  UNL1       -0.0061
     16 C         142.0890  142.2212  168.9437 C.ar    1  UNL1       -0.0029
     17 C         141.2535  143.1737  169.7467 C.ar    1  UNL1       -0.0003
     18 C         139.9251  142.7340  170.2871 C.ar    1  UNL1       -0.0000
     19 C         139.4321  141.3419  170.0245 C.ar    1  UNL1       -0.0003
     20 C         140.2675  140.3894  169.2215 C.ar    1  UNL1       -0.0029
     21 C         142.5678  141.7584  162.2598 C.3     1  UNL1        0.1128
     22 C         141.4954  143.9193  161.2953 C.2     1  UNL1        0.2294
     23 O         142.8452  144.3834  160.8343 O.2     1  UNL1       -0.2745
     24 N         141.3567  142.6067  162.0081 N.am    1  UNL1       -0.2573
     25 C         140.0068  142.1426  162.4691 C.ar    1  UNL1        0.0539
     26 C         139.1084  141.3966  161.5276 C.ar    1  UNL1        0.0149
     27 C         137.7586  140.9325  161.9886 C.ar    1  UNL1        0.0013
     28 C         137.3072  141.2143  163.3910 C.ar    1  UNL1        0.0001
     29 C         138.2056  141.9603  164.3324 C.ar    1  UNL1        0.0013
     30 C         139.5555  142.4245  163.8715 C.ar    1  UNL1        0.0149
     31 C         139.9587  145.9033  161.9678 C.3     1  UNL1        0.0101
     32 C         140.2843  144.7677  161.0435 C.3     1  UNL1        0.0856
@<TRIPOS>BOND
     1    31    32    1
     2    32    22    1
     3    22    23    2
     4    22    24   am
     5    24    21    1
     6    21     1    1
     7     1     8    1
     8     8     9    1
     9     9    10    1
    10    10    11    1
    11    11    14    1
    12    14    15    1
    13    15    16   ar
    14    16    17   ar
    15    17    18   ar
    16    18    19   ar
    17    19    20   ar
    18    11    12    1
    19    12    13    1
    20     1     2    1
    21     2     3    1
    22     3     4    1
    23     4     5    1
    24     4     6    1
    25     6     7    1
    26    24    25    1
    27    25    26   ar
    28    26    27   ar
    29    27    28   ar
    30    28    29   ar
    31    29    30   ar
    32     7     1    1
    33    30    25   ar
    34    13     8    1
    35    20    15   ar
@<TRIPOS>MOLECULE
*****
 32 35 0 0 0
SMALL
GASTEIGER

@<TRIPOS>ATOM
      1 C         142.8724  140.8239  165.5799 C.3     1  UNL1        0.0667
      2 C         142.9633  139.4365  166.1428 C.3     1  UNL1        0.0337
      3 C         142.9124  139.2244  167.6269 C.3     1  UNL1        0.0735
      4 N         142.7705  140.3998  168.5480 N.3     1  UNL1       -0.2714
      5 C         142.7195  140.1877  170.0321 C.3     1  UNL1        0.0896
      6 C         142.6796  141.7872  167.9851 C.3     1  UNL1        0.0735
      7 C         142.7305  141.9993  166.5011 C.3     1  UNL1        0.0337
      8 N         142.9979  140.0353  164.3101 N.3     1  UNL1       -0.2711
      9 C         142.2078  138.7731  164.1299 C.3     1  UNL1        0.0897
     10 C         142.3333  137.9845  162.8601 C.3     1  UNL1        0.0899
     11 N         143.2488  138.4582  161.7705 N.3     1  UNL1       -0.2665
     12 C         144.0389  139.7205  161.9506 C.3     1  UNL1        0.0899
     13 C         143.9134  140.5090  163.2204 C.3     1  UNL1        0.0897
     14 C         143.3742  137.6696  160.5006 C.3     1  UNL1        0.0992
     15 C         142.3951  137.8842  159.3847 C.ar    1  UNL1       -0.0061
     16 C         142.6761  137.3233  158.0222 C.ar    1  UNL1       -0.0029
     17 C         141.6969  137.5378  156.9063 C.ar    1  UNL1       -0.0003
     18 C         140.4368  138.3132  157.1529 C.ar    1  UNL1       -0.0000
     19 C         140.1558  138.8741  158.5154 C.ar    1  UNL1       -0.0003
     20 C         141.1350  138.6596  159.6313 C.ar    1  UNL1       -0.0029
     21 C         142.8251  141.9374  164.5760 C.3     1  UNL1        0.1128
     22 C         141.3923  144.0551  164.1151 C.2     1  UNL1        0.2294
     23 O         142.5868  144.9218  164.3840 O.2     1  UNL1       -0.2745
     24 N         141.5115  142.5630  164.2112 N.am    1  UNL1       -0.2573
     25 C         140.3170  141.6963  163.9423 C.ar    1  UNL1        0.0539
     26 C         139.3966  141.3187  165.0649 C.ar    1  UNL1        0.0149
     27 C         138.2021  140.4520  164.7960 C.ar    1  UNL1        0.0013
     28 C         137.9282  139.9632  163.4047 C.ar    1  UNL1        0.0001
     29 C         138.8486  140.3409  162.2822 C.ar    1  UNL1        0.0013
     30 C         140.0431  141.2075  162.5509 C.ar    1  UNL1        0.0149
     31 C         139.0363  144.9055  164.8051 C.3     1  UNL1        0.0101
     32 C         140.0787  144.6808  163.7503 C.3     1  UNL1        0.0856
@<TRIPOS>BOND
     1    31    32    1
     2    32    22    1
     3    22    23    2
     4    22    24   am
     5    24    21    1
     6    21     1    1
     7     1     8    1
     8     8     9    1
     9     9    10    1
    10    10    11    1
    11    11    14    1
    12    14    15    1
    13    15    16   ar
    14    16    17   ar
    15    17    18   ar
    16    18    19   ar
    17    19    20   ar
    18    11    12    1
    19    12    13    1
    20     1     2    1
    21     2     3    1
    22     3     4    1
    23     4     5    1
    24     4     6    1
    25     6     7    1
    26    24    25    1
    27    25    26   ar
    28    26    27   ar
    29    27    28   ar
    30    28    29   ar
    31    29    30   ar
    32     7     1    1
    33    30    25   ar
    34    13     8    1
    35    20    15   ar
@<TRIPOS>MOLECULE
*****
 32 35 0 0 0
SMALL
GASTEIGER

@<TRIPOS>ATOM
      1 C         142.5253  141.1006  162.0575 C.3     1  UNL1        0.0667
      2 C         143.4094  142.3120  162.0866 C.3     1  UNL1        0.0337
      3 C         143.9021  142.9119  160.8031 C.3     1  UNL1        0.0735
      4 N         143.5107  142.3003  159.4905 N.3     1  UNL1       -0.2714
      5 C         144.0035  142.9002  158.2070 C.3     1  UNL1        0.0896
      6 C         142.6267  141.0889  159.4615 C.3     1  UNL1        0.0735
      7 C         142.1340  140.4890  160.7449 C.3     1  UNL1        0.0337
      8 N         142.6212  141.3176  163.5387 N.3     1  UNL1       -0.2711
      9 C         142.9661  140.1723  164.4438 C.3     1  UNL1        0.0897
     10 C         143.0619  140.3893  165.9248 C.3     1  UNL1        0.0899
     11 N         142.8128  141.7517  166.5009 N.3     1  UNL1       -0.2665
     12 C         142.4680  142.8971  165.5958 C.3     1  UNL1        0.0899
     13 C         142.3721  142.6800  164.1147 C.3     1  UNL1        0.0897
     14 C         142.9087  141.9687  167.9821 C.3     1  UNL1        0.0992
     15 C         141.6718  141.9180  168.8291 C.ar    1  UNL1       -0.0061
     16 C         140.8992  140.6382  168.9523 C.ar    1  UNL1       -0.0029
     17 C         139.6622  140.5875  169.7994 C.ar    1  UNL1       -0.0003
     18 C         139.1980  141.8166  170.5232 C.ar    1  UNL1       -0.0000
     19 C         139.9706  143.0964  170.3999 C.ar    1  UNL1       -0.0003
     20 C         141.2075  143.1471  169.5529 C.ar    1  UNL1       -0.0029
     21 C         141.6746  139.9645  162.5429 C.3     1  UNL1        0.1128
     22 C         139.4199  138.8764  161.8483 C.2     1  UNL1        0.2294
     23 O         140.1508  137.6423  161.4092 O.2     1  UNL1       -0.2745
     24 N         140.1819  140.0375  162.4152 N.am    1  UNL1       -0.2573
     25 C         139.4510  141.2716  162.8543 C.ar    1  UNL1        0.0539
     26 C         138.9001  141.3615  164.2466 C.ar    1  UNL1        0.0149
     27 C         138.1692  142.5956  164.6857 C.ar    1  UNL1        0.0013
     28 C         137.9893  143.7398  163.7326 C.ar    1  UNL1        0.0001
     29 C         138.5402  143.6498  162.3403 C.ar    1  UNL1        0.0013
     30 C         139.2710  142.4158  161.9011 C.ar    1  UNL1        0.0149
     31 C         137.3080  139.6704  160.5601 C.3     1  UNL1        0.0101
     32 C         137.9272  138.9493  161.7206 C.3     1  UNL1        0.0856
@<TRIPOS>BOND
     1    31    32    1
     2    32    22    1
     3    22    23    2
     4    22    24   am
     5    24    21    1
     6    21     1    1
     7     1     8    1
     8     8     9    1
     9     9    10    1
    10    10    11    1
    11    11    14    1
    12    14    15    1
    13    15    16   ar
    14    16    17   ar
    15    17    18   ar
    16    18    19   ar
    17    19    20   ar
    18    11    12    1
    19    12    13    1
    20     1     2    1
    21     2     3    1
    22     3     4    1
    23     4     5    1
    24     4     6    1
    25     6     7    1
    26    24    25    1
    27    25    26   ar
    28    26    27   ar
    29    27    28   ar
    30    28    29   ar
    31    29    30   ar
    32     7     1    1
    33    30    25   ar
    34    13     8    1
    35    20    15   ar
@<TRIPOS>MOLECULE
*****
 32 35 0 0 0
SMALL
GASTEIGER

@<TRIPOS>ATOM
      1 C         141.8378  141.5526  166.9796 C.3     1  UNL1        0.0667
      2 C         142.6263  140.4976  167.6974 C.3     1  UNL1        0.0337
      3 C         142.5440  140.3861  169.1910 C.3     1  UNL1        0.0735
      4 N         141.6733  141.3295  169.9668 N.3     1  UNL1       -0.2714
      5 C         141.5911  141.2180  171.4603 C.3     1  UNL1        0.0896
      6 C         140.8848  142.3845  169.2489 C.3     1  UNL1        0.0735
      7 C         140.9670  142.4960  167.7554 C.3     1  UNL1        0.0337
      8 N         142.5165  140.8964  165.8139 N.3     1  UNL1       -0.2711
      9 C         143.1086  141.7359  164.7210 C.3     1  UNL1        0.0897
     10 C         143.7873  141.0797  163.5554 C.3     1  UNL1        0.0899
     11 N         143.8740  139.5839  163.4827 N.3     1  UNL1       -0.2665
     12 C         143.2819  138.7444  164.5757 C.3     1  UNL1        0.0899
     13 C         142.6032  139.4006  165.7413 C.3     1  UNL1        0.0897
     14 C         144.5527  138.9277  162.3170 C.3     1  UNL1        0.0992
     15 C         143.8955  138.9286  160.9687 C.ar    1  UNL1       -0.0061
     16 C         143.1813  137.7028  160.4817 C.ar    1  UNL1       -0.0029
     17 C         142.5241  137.7037  159.1333 C.ar    1  UNL1       -0.0003
     18 C         142.5811  138.9305  158.2720 C.ar    1  UNL1       -0.0000
     19 C         143.2953  140.1563  158.7590 C.ar    1  UNL1       -0.0003
     20 C         143.9525  140.1554  160.1074 C.ar    1  UNL1       -0.0029
     21 C         141.2850  142.3796  165.8569 C.3     1  UNL1        0.1128
     22 C         138.9966  143.1743  164.9180 C.2     1  UNL1        0.2294
     23 O         139.4097  144.6021  165.1197 O.2     1  UNL1       -0.2745
     24 N         139.9343  142.0631  165.2867 N.am    1  UNL1       -0.2573
     25 C         139.5212  140.6352  165.0850 C.ar    1  UNL1        0.0539
     26 C         138.8241  139.8934  166.1868 C.ar    1  UNL1        0.0149
     27 C         138.4110  138.4656  165.9852 C.ar    1  UNL1        0.0013
     28 C         138.6950  137.7796  164.6818 C.ar    1  UNL1        0.0001
     29 C         139.3920  138.5214  163.5801 C.ar    1  UNL1        0.0013
     30 C         139.8051  139.9492  163.7817 C.ar    1  UNL1        0.0149
     31 C         137.4722  142.7160  162.8646 C.3     1  UNL1        0.0101
     32 C         137.6458  142.8578  164.3478 C.3     1  UNL1        0.0856
@<TRIPOS>BOND
     1    31    32    1
     2    32    22    1
     3    22    23    2
     4    22    24   am
     5    24    21    1
     6    21     1    1
     7     1     8    1
     8     8     9    1
     9     9    10    1
    10    10    11    1
    11    11    14    1
    12    14    15    1
    13    15    16   ar
    14    16    17   ar
    15    17    18   ar
    16    18    19   ar
    17    19    20   ar
    18    11    12    1
    19    12    13    1
    20     1     2    1
    21     2     3    1
    22     3     4    1
    23     4     5    1
    24     4     6    1
    25     6     7    1
    26    24    25    1
    27    25    26   ar
    28    26    27   ar
    29    27    28   ar
    30    28    29   ar
    31    29    30   ar
    32     7     1    1
    33    30    25   ar
    34    13     8    1
    35    20    15   ar
@<TRIPOS>MOLECULE
*****
 32 35 0 0 0
SMALL
GASTEIGER

@<TRIPOS>ATOM
      1 C         139.8756  141.7435  162.3567 C.3     1  UNL1        0.0667
      2 C         139.8477  143.0602  163.0745 C.3     1  UNL1        0.0337
      3 C         139.9754  144.3390  162.3009 C.3     1  UNL1        0.0735
      4 N         140.1312  144.3010  160.8095 N.3     1  UNL1       -0.2714
      5 C         140.2589  145.5798  160.0360 C.3     1  UNL1        0.0896
      6 C         140.1592  142.9843  160.0917 C.3     1  UNL1        0.0735
      7 C         140.0314  141.7055  160.8652 C.3     1  UNL1        0.0337
      8 N         139.7096  141.2666  163.7692 N.3     1  UNL1       -0.2711
      9 C         140.6474  141.7453  164.8375 C.3     1  UNL1        0.0897
     10 C         140.4813  141.2684  166.2499 C.3     1  UNL1        0.0899
     11 N         139.3774  140.3129  166.5940 N.3     1  UNL1       -0.2665
     12 C         138.4396  139.8343  165.5257 C.3     1  UNL1        0.0899
     13 C         138.6057  140.3111  164.1133 C.3     1  UNL1        0.0897
     14 C         139.2113  139.8361  168.0065 C.3     1  UNL1        0.0992
     15 C         140.1223  140.3476  169.0828 C.ar    1  UNL1       -0.0061
     16 C         139.7222  141.5401  169.9000 C.ar    1  UNL1       -0.0029
     17 C         140.6332  142.0517  170.9763 C.ar    1  UNL1       -0.0003
     18 C         141.9443  141.3707  171.2354 C.ar    1  UNL1       -0.0000
     19 C         142.3445  140.1782  170.4182 C.ar    1  UNL1       -0.0003
     20 C         141.4335  139.6666  169.3419 C.ar    1  UNL1       -0.0029
     21 C         139.8460  140.2611  162.1293 C.3     1  UNL1        0.1128
     22 C         141.0197  138.6230  160.4895 C.2     1  UNL1        0.2294
     23 O         139.7200  138.4111  159.7711 O.2     1  UNL1       -0.2745
     24 N         141.0826  139.5480  161.6687 N.am    1  UNL1       -0.2573
     25 C         142.3822  139.7600  162.3871 C.ar    1  UNL1        0.0539
     26 C         143.3753  140.7544  161.8630 C.ar    1  UNL1        0.0149
     27 C         144.6750  140.9664  162.5815 C.ar    1  UNL1        0.0013
     28 C         144.9813  140.1839  163.8240 C.ar    1  UNL1        0.0001
     29 C         143.9881  139.1895  164.3480 C.ar    1  UNL1        0.0013
     30 C         142.6885  138.9775  163.6296 C.ar    1  UNL1        0.0149
     31 C         143.0034  138.4049  158.8260 C.3     1  UNL1        0.0101
     32 C         142.2563  137.9099  160.0288 C.3     1  UNL1        0.0856
@<TRIPOS>BOND
     1    31    32    1
     2    32    22    1
     3    22    23    2
     4    22    24   am
     5    24    21    1
     6    21     1    1
     7     1     8    1
     8     8     9    1
     9     9    10    1
    10    10    11    1
    11    11    14    1
    12    14    15    1
    13    15    16   ar
    14    16    17   ar
    15    17    18   ar
    16    18    19   ar
    17    19    20   ar
    18    11    12    1
    19    12    13    1
    20     1     2    1
    21     2     3    1
    22     3     4    1
    23     4     5    1
    24     4     6    1
    25     6     7    1
    26    24    25    1
    27    25    26   ar
    28    26    27   ar
    29    27    28   ar
    30    28    29   ar
    31    29    30   ar
    32     7     1    1
    33    30    25   ar
    34    13     8    1
    35    20    15   ar
