@<TRIPOS>MOLECULE
*****
 54 61 0 0 0
SMALL
GASTEIGER

@<TRIPOS>ATOM
      1 C         137.9494  140.5956  158.9927 C.ar    1  UNL1       -0.0061
      2 C         137.1144  140.9632  157.8021 C.ar    1  UNL1       -0.0029
      3 C         137.6610  141.8955  156.7619 C.ar    1  UNL1        0.0012
      4 C         139.0425  142.4602  156.9123 C.ar    1  UNL1        0.0177
      5 C         139.8775  142.0925  158.1030 C.ar    1  UNL1        0.0012
      6 C         139.3309  141.1602  159.1432 C.ar    1  UNL1       -0.0029
      7 C         139.5890  143.3925  155.8720 C.ar    1  UNL1        0.0829
      8 N         139.3099  144.8635  155.9623 N.ar    1  UNL1       -0.2264
      9 C         139.8564  145.7958  154.9220 C.ar    1  UNL1        0.1666
     10 N         139.5773  147.2668  155.0123 N.ar    1  UNL1       -0.1945
     11 C         140.1238  148.1991  153.9720 C.ar    1  UNL1        0.2216
     12 N         140.9495  147.6603  152.8415 N.ar    1  UNL1       -0.2120
     13 C         141.2286  146.1893  152.7512 C.ar    1  UNL1        0.1048
     14 C         140.6821  145.2571  153.7915 C.ar    1  UNL1        0.0551
     15 C         140.9612  143.7860  153.7013 C.ar    1  UNL1        0.0061
     16 C         140.4147  142.8538  154.7415 C.ar    1  UNL1        0.0179
     17 N         139.8447  149.6702  154.0622 N.pl3   1  UNL1       -0.2753
     18 C         140.5046  150.6188  153.1058 C.3     1  UNL1        0.1109
     19 C         140.2255  152.0898  153.1960 C.3     1  UNL1        0.0940
     20 N         139.2865  152.6123  154.2426 N.3     1  UNL1       -0.2677
     21 C         138.6266  151.6637  155.1990 C.3     1  UNL1        0.0940
     22 C         138.9057  150.1926  155.1088 C.3     1  UNL1        0.1109
     23 C         139.0074  154.0833  154.3328 C.3     1  UNL1        0.1043
     24 C         137.7749  154.6533  153.6957 C.3     1  UNL1        0.1544
     25 O         136.9520  153.8100  152.7674 O.3     1  UNL1       -0.3805
     26 H         137.4677  153.6082  151.9711 H       1  UNL1        0.2105
     27 C         140.6938  141.3827  154.6513 C.ar    1  UNL1        0.0015
     28 C         139.6893  140.4662  154.0180 C.ar    1  UNL1        0.0000
     29 C         139.9684  138.9952  153.9278 C.ar    1  UNL1        0.0000
     30 C         141.2519  138.4406  154.4709 C.ar    1  UNL1        0.0000
     31 C         142.2564  139.3571  155.1042 C.ar    1  UNL1        0.0000
     32 C         141.9773  140.8281  155.1944 C.ar    1  UNL1        0.0000
     33 C         137.4029  139.6632  160.0330 C.3     1  UNL1        0.0991
     34 C         138.7042  140.0658  164.3219 C.3     1  UNL1        0.0613
     35 C         138.1041  141.2400  163.6069 C.3     1  UNL1        0.0249
     36 C         137.6703  141.1057  162.1772 C.3     1  UNL1        0.0728
     37 N         137.8366  139.7974  161.4626 N.3     1  UNL1       -0.2689
     38 C         138.4367  138.6233  162.1777 C.3     1  UNL1        0.0728
     39 C         138.8705  138.7575  163.6073 C.3     1  UNL1        0.0249
     40 C         140.2385  140.9899  167.7653 C.ar    1  UNL1        0.1644
     41 N         139.3725  139.8230  168.1376 N.ar    1  UNL1       -0.1293
     42 N         138.6923  139.3349  166.8930 N.ar    1  UNL1       -0.1336
     43 C         139.1380  140.2000  165.7515 C.ar    1  UNL1        0.1396
     44 N         140.0935  141.2228  166.2906 N.ar    1  UNL1       -0.3245
     45 H         140.5461  141.9239  165.7683 H       1  UNL1        0.1686
     46 N         143.6784  144.1675  171.5164 N.pl3   1  UNL1       -0.3426
     47 C         142.8184  143.3731  170.5786 C.ar    1  UNL1        0.1254
     48 C         143.3844  142.1758  169.8742 C.ar    1  UNL1        0.0340
     49 C         142.5244  141.3814  168.9364 C.ar    1  UNL1        0.0075
     50 C         141.0985  141.7843  168.7031 C.ar    1  UNL1        0.0550
     51 C         140.5325  142.9816  169.4075 C.ar    1  UNL1        0.1033
     52 N         141.3925  143.7760  170.3452 N.ar    1  UNL1       -0.2295
     53 H         144.6142  143.9031  171.6695 H       1  UNL1        0.1437
     54 H         143.3069  144.9534  171.9787 H       1  UNL1        0.1437
@<TRIPOS>BOND
     1    46    47    1
     2    47    48   ar
     3    48    49   ar
     4    49    50   ar
     5    50    40    1
     6    40    41   ar
     7    41    42   ar
     8    42    43   ar
     9    43    34    1
    10    34    35    1
    11    35    36    1
    12    36    37    1
    13    37    33    1
    14    33     1    1
    15     1     2   ar
    16     2     3   ar
    17     3     4   ar
    18     4     7    1
    19     7     8   ar
    20     8     9   ar
    21     9    10   ar
    22    10    11   ar
    23    11    17    1
    24    17    18    1
    25    18    19    1
    26    19    20    1
    27    20    23    1
    28    23    24    1
    29    24    25    1
    30    20    21    1
    31    21    22    1
    32    11    12   ar
    33    12    13   ar
    34    13    14   ar
    35    14    15   ar
    36    15    16   ar
    37    16    27    1
    38    27    28   ar
    39    28    29   ar
    40    29    30   ar
    41    30    31   ar
    42    31    32   ar
    43     4     5   ar
    44     5     6   ar
    45    37    38    1
    46    38    39    1
    47    43    44   ar
    48    50    51   ar
    49    51    52   ar
    50    52    47   ar
    51    44    40   ar
    52    39    34    1
    53     6     1   ar
    54    16     7   ar
    55    32    27   ar
    56    14     9   ar
    57    22    17    1
    58    46    53    1
    59    46    54    1
    60    25    26    1
    61    44    45    1
@<TRIPOS>MOLECULE
*****
 54 61 0 0 0
SMALL
GASTEIGER

@<TRIPOS>ATOM
      1 C         141.9686  139.1777  156.1891 C.ar    1  UNL1       -0.0061
      2 C         143.1695  139.8231  156.8144 C.ar    1  UNL1       -0.0029
      3 C         142.9945  140.8133  157.9275 C.ar    1  UNL1        0.0012
      4 C         141.6186  141.1581  158.4152 C.ar    1  UNL1        0.0177
      5 C         140.4176  140.5127  157.7898 C.ar    1  UNL1        0.0012
      6 C         140.5926  139.5225  156.6768 C.ar    1  UNL1       -0.0029
      7 C         141.4436  142.1483  159.5283 C.ar    1  UNL1        0.0829
      8 N         141.6154  141.7129  160.9533 N.ar    1  UNL1       -0.2264
      9 C         141.4405  142.7031  162.0664 C.ar    1  UNL1        0.1666
     10 N         141.6123  142.2677  163.4915 N.ar    1  UNL1       -0.1945
     11 C         141.4373  143.2579  164.6045 C.ar    1  UNL1        0.2216
     12 N         141.0905  144.6835  164.2924 N.ar    1  UNL1       -0.2120
     13 C         140.9187  145.1189  162.8674 C.ar    1  UNL1        0.1048
     14 C         141.0937  144.1287  161.7544 C.ar    1  UNL1        0.0551
     15 C         140.9218  144.5641  160.3292 C.ar    1  UNL1        0.0061
     16 C         141.0968  143.5739  159.2162 C.ar    1  UNL1        0.0179
     17 N         141.6092  142.8225  166.0297 N.pl3   1  UNL1       -0.2753
     18 C         142.9704  142.4576  166.5434 C.3     1  UNL1        0.1109
     19 C         143.1423  142.0222  167.9685 C.3     1  UNL1        0.0940
     20 N         141.9529  141.9518  168.8799 N.3     1  UNL1       -0.2677
     21 C         140.5917  142.3168  168.3661 C.3     1  UNL1        0.0940
     22 C         140.4199  142.7522  166.9410 C.3     1  UNL1        0.1109
     23 C         142.1248  141.5164  170.3050 C.3     1  UNL1        0.1043
     24 C         140.9250  141.1484  171.1267 C.3     1  UNL1        0.1544
     25 O         140.3516  142.1349  172.1003 O.3     1  UNL1       -0.3805
     26 H         140.9915  142.2971  172.8110 H       1  UNL1        0.2105
     27 C         140.9250  144.0093  157.7911 C.ar    1  UNL1        0.0015
     28 C         142.1184  144.4333  156.9873 C.ar    1  UNL1        0.0000
     29 C         141.9466  144.8686  155.5622 C.ar    1  UNL1        0.0000
     30 C         140.5814  144.8800  154.9409 C.ar    1  UNL1        0.0000
     31 C         139.3880  144.4560  155.7446 C.ar    1  UNL1        0.0000
     32 C         139.5598  144.0207  157.1697 C.ar    1  UNL1        0.0000
     33 C         142.1435  138.1875  155.0760 C.3     1  UNL1        0.0991
     34 C         142.6277  133.8126  156.0118 C.3     1  UNL1        0.0613
     35 C         141.3795  134.3020  155.3392 C.3     1  UNL1        0.0249
     36 C         141.2181  135.7604  155.0272 C.3     1  UNL1        0.0728
     37 N         142.3049  136.7293  155.3879 N.3     1  UNL1       -0.2689
     38 C         143.5531  136.2398  156.0606 C.3     1  UNL1        0.0728
     39 C         143.7145  134.7816  156.3725 C.3     1  UNL1        0.0249
     40 C         143.3368  130.2857  157.4688 C.ar    1  UNL1        0.1644
     41 N         142.7382  129.9349  156.1388 N.ar    1  UNL1       -0.1293
     42 N         142.3997  131.2134  155.4312 N.ar    1  UNL1       -0.1336
     43 C         142.7891  132.3544  156.3237 C.ar    1  UNL1        0.1396
     44 N         143.3682  131.7810  157.5830 N.ar    1  UNL1       -0.3245
     45 H         143.7091  132.2957  158.3499 H       1  UNL1        0.1686
     46 N         145.2665  126.3912  161.6052 N.pl3   1  UNL1       -0.3426
     47 C         144.7841  127.3648  160.5711 C.ar    1  UNL1        0.1254
     48 C         143.3134  127.5349  160.3294 C.ar    1  UNL1        0.0340
     49 C         142.8311  128.5085  159.2953 C.ar    1  UNL1        0.0075
     50 C         143.8192  129.3120  158.5029 C.ar    1  UNL1        0.0550
     51 C         145.2898  129.1419  158.7446 C.ar    1  UNL1        0.1033
     52 N         145.7722  128.1683  159.7787 N.ar    1  UNL1       -0.2295
     53 H         144.6179  125.8638  162.1253 H       1  UNL1        0.1437
     54 H         146.2317  126.2795  161.7638 H       1  UNL1        0.1437
@<TRIPOS>BOND
     1    46    47    1
     2    47    48   ar
     3    48    49   ar
     4    49    50   ar
     5    50    40    1
     6    40    41   ar
     7    41    42   ar
     8    42    43   ar
     9    43    34    1
    10    34    35    1
    11    35    36    1
    12    36    37    1
    13    37    33    1
    14    33     1    1
    15     1     2   ar
    16     2     3   ar
    17     3     4   ar
    18     4     7    1
    19     7     8   ar
    20     8     9   ar
    21     9    10   ar
    22    10    11   ar
    23    11    17    1
    24    17    18    1
    25    18    19    1
    26    19    20    1
    27    20    23    1
    28    23    24    1
    29    24    25    1
    30    20    21    1
    31    21    22    1
    32    11    12   ar
    33    12    13   ar
    34    13    14   ar
    35    14    15   ar
    36    15    16   ar
    37    16    27    1
    38    27    28   ar
    39    28    29   ar
    40    29    30   ar
    41    30    31   ar
    42    31    32   ar
    43     4     5   ar
    44     5     6   ar
    45    37    38    1
    46    38    39    1
    47    43    44   ar
    48    50    51   ar
    49    51    52   ar
    50    52    47   ar
    51    44    40   ar
    52    39    34    1
    53     6     1   ar
    54    16     7   ar
    55    32    27   ar
    56    14     9   ar
    57    22    17    1
    58    46    53    1
    59    46    54    1
    60    25    26    1
    61    44    45    1
@<TRIPOS>MOLECULE
*****
 54 61 0 0 0
SMALL
GASTEIGER

@<TRIPOS>ATOM
      1 C         141.9128  138.4657  158.8305 C.ar    1  UNL1       -0.0061
      2 C         141.3494  139.8477  158.9804 C.ar    1  UNL1       -0.0029
      3 C         140.3069  140.3408  158.0212 C.ar    1  UNL1        0.0012
      4 C         139.8278  139.4518  156.9121 C.ar    1  UNL1        0.0177
      5 C         140.3912  138.0698  156.7622 C.ar    1  UNL1        0.0012
      6 C         141.4337  137.5767  157.7214 C.ar    1  UNL1       -0.0029
      7 C         138.7853  139.9449  155.9529 C.ar    1  UNL1        0.0829
      8 N         137.3417  139.9655  156.3596 N.ar    1  UNL1       -0.2264
      9 C         136.2991  140.4586  155.4004 C.ar    1  UNL1        0.1666
     10 N         134.8555  140.4791  155.8071 N.ar    1  UNL1       -0.1945
     11 C         133.8130  140.9722  154.8479 C.ar    1  UNL1        0.2216
     12 N         134.2142  141.4448  153.4820 N.ar    1  UNL1       -0.2120
     13 C         135.6579  141.4243  153.0753 C.ar    1  UNL1        0.1048
     14 C         136.7003  140.9312  154.0345 C.ar    1  UNL1        0.0551
     15 C         138.1440  140.9106  153.6278 C.ar    1  UNL1        0.0061
     16 C         139.1865  140.4175  154.5870 C.ar    1  UNL1        0.0179
     17 N         132.3693  140.9928  155.2546 N.pl3   1  UNL1       -0.2753
     18 C         131.9220  140.2374  156.4709 C.3     1  UNL1        0.1109
     19 C         130.4783  140.2579  156.8776 C.3     1  UNL1        0.0940
     20 N         129.4820  141.0338  156.0680 N.3     1  UNL1       -0.2677
     21 C         129.9293  141.7892  154.8518 C.3     1  UNL1        0.0940
     22 C         131.3731  141.7687  154.4451 C.3     1  UNL1        0.1109
     23 C         128.0383  141.0544  156.4747 C.3     1  UNL1        0.1043
     24 C         127.1704  142.2194  156.1014 C.3     1  UNL1        0.1544
     25 O         127.3670  143.5465  156.7724 O.3     1  UNL1       -0.3805
     26 H         127.1406  143.4701  157.7125 H       1  UNL1        0.2105
     27 C         140.6302  140.3970  154.1803 C.ar    1  UNL1        0.0015
     28 C         141.1736  139.2356  153.4020 C.ar    1  UNL1        0.0000
     29 C         142.6173  139.2150  152.9953 C.ar    1  UNL1        0.0000
     30 C         143.5175  140.3558  153.3669 C.ar    1  UNL1        0.0000
     31 C         142.9740  141.5172  154.1452 C.ar    1  UNL1        0.0000
     32 C         141.5304  141.5378  154.5519 C.ar    1  UNL1        0.0000
     33 C         142.9553  137.9725  159.7897 C.3     1  UNL1        0.0991
     34 C         142.6333  138.9630  164.1675 C.3     1  UNL1        0.0613
     35 C         141.6318  138.0459  163.5304 C.3     1  UNL1        0.0249
     36 C         141.7391  137.7158  162.0711 C.3     1  UNL1        0.0728
     37 N         142.8480  138.3027  161.2489 N.3     1  UNL1       -0.2689
     38 C         143.8495  139.2197  161.8861 C.3     1  UNL1        0.0728
     39 C         143.7422  139.5499  163.3453 C.3     1  UNL1        0.0249
     40 C         141.8083  140.2856  167.7221 C.ar    1  UNL1        0.1644
     41 N         142.9133  139.3167  168.0226 N.ar    1  UNL1       -0.1293
     42 N         143.3568  138.7033  166.7276 N.ar    1  UNL1       -0.1336
     43 C         142.5260  139.2931  165.6268 C.ar    1  UNL1        0.1396
     44 N         141.5690  140.2710  166.2414 N.ar    1  UNL1       -0.3245
     45 H         140.9011  140.8089  165.7578 H       1  UNL1        0.1686
     46 N         138.8631  143.6322  171.7379 N.pl3   1  UNL1       -0.3426
     47 C         139.5994  142.7956  170.7339 C.ar    1  UNL1        0.1254
     48 C         140.5237  143.4471  169.7483 C.ar    1  UNL1        0.0340
     49 C         141.2600  142.6103  168.7444 C.ar    1  UNL1        0.0075
     50 C         141.0720  141.1223  168.7260 C.ar    1  UNL1        0.0550
     51 C         140.1477  140.4709  169.7116 C.ar    1  UNL1        0.1033
     52 N         139.4114  141.3075  170.7155 N.ar    1  UNL1       -0.2295
     53 H         138.9865  144.6089  171.7499 H       1  UNL1        0.1437
     54 H         138.2564  143.2047  172.3847 H       1  UNL1        0.1437
@<TRIPOS>BOND
     1    46    47    1
     2    47    48   ar
     3    48    49   ar
     4    49    50   ar
     5    50    40    1
     6    40    41   ar
     7    41    42   ar
     8    42    43   ar
     9    43    34    1
    10    34    35    1
    11    35    36    1
    12    36    37    1
    13    37    33    1
    14    33     1    1
    15     1     2   ar
    16     2     3   ar
    17     3     4   ar
    18     4     7    1
    19     7     8   ar
    20     8     9   ar
    21     9    10   ar
    22    10    11   ar
    23    11    17    1
    24    17    18    1
    25    18    19    1
    26    19    20    1
    27    20    23    1
    28    23    24    1
    29    24    25    1
    30    20    21    1
    31    21    22    1
    32    11    12   ar
    33    12    13   ar
    34    13    14   ar
    35    14    15   ar
    36    15    16   ar
    37    16    27    1
    38    27    28   ar
    39    28    29   ar
    40    29    30   ar
    41    30    31   ar
    42    31    32   ar
    43     4     5   ar
    44     5     6   ar
    45    37    38    1
    46    38    39    1
    47    43    44   ar
    48    50    51   ar
    49    51    52   ar
    50    52    47   ar
    51    44    40   ar
    52    39    34    1
    53     6     1   ar
    54    16     7   ar
    55    32    27   ar
    56    14     9   ar
    57    22    17    1
    58    46    53    1
    59    46    54    1
    60    25    26    1
    61    44    45    1
@<TRIPOS>MOLECULE
*****
 54 61 0 0 0
SMALL
GASTEIGER

@<TRIPOS>ATOM
      1 C         139.9461  143.0826  156.2360 C.ar    1  UNL1       -0.0061
      2 C         139.4855  141.7128  156.6380 C.ar    1  UNL1       -0.0029
      3 C         140.1679  140.9921  157.7625 C.ar    1  UNL1        0.0012
      4 C         141.3110  141.6410  158.4852 C.ar    1  UNL1        0.0177
      5 C         141.7716  143.0108  158.0832 C.ar    1  UNL1        0.0012
      6 C         141.0892  143.7315  156.9587 C.ar    1  UNL1       -0.0029
      7 C         141.9934  140.9202  159.6098 C.ar    1  UNL1        0.0829
      8 N         141.4681  141.0454  161.0092 N.ar    1  UNL1       -0.2264
      9 C         142.1506  140.3246  162.1338 C.ar    1  UNL1        0.1666
     10 N         141.6252  140.4498  163.5332 N.ar    1  UNL1       -0.1945
     11 C         142.3077  139.7289  164.6577 C.ar    1  UNL1        0.2216
     12 N         143.5155  138.8829  164.3829 N.ar    1  UNL1       -0.2120
     13 C         144.0408  138.7577  162.9835 C.ar    1  UNL1        0.1048
     14 C         143.3583  139.4785  161.8590 C.ar    1  UNL1        0.0551
     15 C         143.8837  139.3534  160.4595 C.ar    1  UNL1        0.0061
     16 C         143.2012  140.0742  159.3350 C.ar    1  UNL1        0.0179
     17 N         141.7824  139.8541  166.0572 N.pl3   1  UNL1       -0.2753
     18 C         142.7112  139.6935  167.2241 C.3     1  UNL1        0.1109
     19 C         142.1859  139.8187  168.6235 C.3     1  UNL1        0.0940
     20 N         140.7318  140.1044  168.8561 N.3     1  UNL1       -0.2677
     21 C         139.8030  140.2650  167.6892 C.3     1  UNL1        0.0940
     22 C         140.3284  140.1398  166.2898 C.3     1  UNL1        0.1109
     23 C         140.2066  140.2296  170.2555 C.3     1  UNL1        0.1043
     24 C         140.9235  141.0924  171.2513 C.3     1  UNL1        0.1544
     25 O         142.2242  140.6344  171.8414 O.3     1  UNL1       -0.3805
     26 H         142.0721  139.8477  172.3881 H       1  UNL1        0.2105
     27 C         143.7265  139.9490  157.9355 C.ar    1  UNL1        0.0015
     28 C         144.7894  140.8878  157.4466 C.ar    1  UNL1        0.0000
     29 C         145.3147  140.7627  156.0472 C.ar    1  UNL1        0.0000
     30 C         144.7772  139.6988  155.1367 C.ar    1  UNL1        0.0000
     31 C         143.7143  138.7600  155.6256 C.ar    1  UNL1        0.0000
     32 C         143.1890  138.8851  157.0250 C.ar    1  UNL1        0.0000
     33 C         139.2636  143.8034  155.1114 C.3     1  UNL1        0.0991
     34 C         139.8640  148.2319  154.5844 C.3     1  UNL1        0.0613
     35 C         138.8498  147.7241  155.5660 C.3     1  UNL1        0.0249
     36 C         138.6497  146.2479  155.7416 C.3     1  UNL1        0.0728
     37 N         139.4638  145.2796  154.9357 N.3     1  UNL1       -0.2689
     38 C         140.4780  145.7874  153.9542 C.3     1  UNL1        0.0728
     39 C         140.6782  147.2635  153.7785 C.3     1  UNL1        0.0249
     40 C         141.0912  151.8610  153.9612 C.ar    1  UNL1        0.1644
     41 N         139.6531  152.0983  154.3158 N.ar    1  UNL1       -0.1293
     42 N         139.0184  150.7676  154.5924 N.ar    1  UNL1       -0.1336
     43 C         140.0642  149.7081  154.4088 C.ar    1  UNL1        0.1396
     44 N         141.3452  150.3838  154.0186 N.ar    1  UNL1       -0.3245
     45 H         142.2022  149.9364  153.8329 H       1  UNL1        0.1686
     46 N         145.1200  156.0804  152.5589 N.pl3   1  UNL1       -0.3426
     47 C         144.1128  155.0256  152.9094 C.ar    1  UNL1        0.1254
     48 C         144.4775  153.9284  153.8652 C.ar    1  UNL1        0.0340
     49 C         143.4703  152.8736  154.2157 C.ar    1  UNL1        0.0075
     50 C         142.0984  152.9159  153.6106 C.ar    1  UNL1        0.0550
     51 C         141.7338  154.0130  152.6549 C.ar    1  UNL1        0.1033
     52 N         142.7410  155.0678  152.3043 N.ar    1  UNL1       -0.2295
     53 H         146.0204  156.0527  152.9561 H       1  UNL1        0.1437
     54 H         144.8807  156.8004  151.9316 H       1  UNL1        0.1437
@<TRIPOS>BOND
     1    46    47    1
     2    47    48   ar
     3    48    49   ar
     4    49    50   ar
     5    50    40    1
     6    40    41   ar
     7    41    42   ar
     8    42    43   ar
     9    43    34    1
    10    34    35    1
    11    35    36    1
    12    36    37    1
    13    37    33    1
    14    33     1    1
    15     1     2   ar
    16     2     3   ar
    17     3     4   ar
    18     4     7    1
    19     7     8   ar
    20     8     9   ar
    21     9    10   ar
    22    10    11   ar
    23    11    17    1
    24    17    18    1
    25    18    19    1
    26    19    20    1
    27    20    23    1
    28    23    24    1
    29    24    25    1
    30    20    21    1
    31    21    22    1
    32    11    12   ar
    33    12    13   ar
    34    13    14   ar
    35    14    15   ar
    36    15    16   ar
    37    16    27    1
    38    27    28   ar
    39    28    29   ar
    40    29    30   ar
    41    30    31   ar
    42    31    32   ar
    43     4     5   ar
    44     5     6   ar
    45    37    38    1
    46    38    39    1
    47    43    44   ar
    48    50    51   ar
    49    51    52   ar
    50    52    47   ar
    51    44    40   ar
    52    39    34    1
    53     6     1   ar
    54    16     7   ar
    55    32    27   ar
    56    14     9   ar
    57    22    17    1
    58    46    53    1
    59    46    54    1
    60    25    26    1
    61    44    45    1
@<TRIPOS>MOLECULE
*****
 54 61 0 0 0
SMALL
GASTEIGER

@<TRIPOS>ATOM
      1 C         142.5565  141.2527  160.9349 C.ar    1  UNL1       -0.0061
      2 C         141.6869  140.1040  161.3522 C.ar    1  UNL1       -0.0029
      3 C         141.3814  139.8834  162.8041 C.ar    1  UNL1        0.0012
      4 C         141.9455  140.8115  163.8387 C.ar    1  UNL1        0.0177
      5 C         142.8151  141.9602  163.4214 C.ar    1  UNL1        0.0012
      6 C         143.1206  142.1808  161.9695 C.ar    1  UNL1       -0.0029
      7 C         141.6399  140.5909  165.2906 C.ar    1  UNL1        0.0829
      8 N         142.5836  139.7955  166.1432 N.ar    1  UNL1       -0.2264
      9 C         142.2780  139.5749  167.5951 C.ar    1  UNL1        0.1666
     10 N         143.2217  138.7795  168.4477 N.ar    1  UNL1       -0.1945
     11 C         142.9161  138.5589  169.8995 C.ar    1  UNL1        0.2216
     12 N         141.6669  139.1337  170.4988 N.ar    1  UNL1       -0.2120
     13 C         140.7233  139.9291  169.6462 C.ar    1  UNL1        0.1048
     14 C         141.0288  140.1497  168.1944 C.ar    1  UNL1        0.0551
     15 C         140.0852  140.9451  167.3417 C.ar    1  UNL1        0.0061
     16 C         140.3908  141.1657  165.8899 C.ar    1  UNL1        0.0179
     17 N         143.8597  137.7635  170.7522 N.pl3   1  UNL1       -0.2753
     18 C         144.0522  136.2988  170.4922 C.3     1  UNL1        0.1109
     19 C         144.9958  135.5034  171.3447 C.3     1  UNL1        0.0940
     20 N         145.7470  136.1727  172.4574 N.3     1  UNL1       -0.2677
     21 C         145.5545  137.6374  172.7174 C.3     1  UNL1        0.0940
     22 C         144.6108  138.4328  171.8647 C.3     1  UNL1        0.1109
     23 C         146.6906  135.3773  173.3100 C.3     1  UNL1        0.1043
     24 C         146.1975  134.1667  174.0457 C.3     1  UNL1        0.1544
     25 O         146.3425  132.8056  173.4322 O.3     1  UNL1       -0.3805
     26 H         145.7896  132.7487  172.6372 H       1  UNL1        0.2105
     27 C         139.4471  141.9611  165.0372 C.ar    1  UNL1        0.0015
     28 C         139.6181  143.4462  164.9139 C.ar    1  UNL1        0.0000
     29 C         138.6746  144.2416  164.0614 C.ar    1  UNL1        0.0000
     30 C         137.5600  143.5519  163.3321 C.ar    1  UNL1        0.0000
     31 C         137.3889  142.0668  163.4554 C.ar    1  UNL1        0.0000
     32 C         138.3325  141.2714  164.3080 C.ar    1  UNL1        0.0000
     33 C         142.8620  141.4733  159.4830 C.3     1  UNL1        0.0991
     34 C         140.5906  144.5814  157.1527 C.3     1  UNL1        0.0613
     35 C         142.0543  144.7676  157.4226 C.3     1  UNL1        0.0249
     36 C         142.8115  143.7315  158.1994 C.3     1  UNL1        0.0728
     37 N         142.1049  142.5093  158.7062 N.3     1  UNL1       -0.2689
     38 C         140.6412  142.3231  158.4363 C.3     1  UNL1        0.0728
     39 C         139.8840  143.3591  157.6596 C.3     1  UNL1        0.0249
     40 C         139.1693  147.7311  155.3851 C.ar    1  UNL1        0.1644
     41 N         138.1674  146.6923  154.9762 N.ar    1  UNL1       -0.1293
     42 N         138.5779  145.3860  155.5886 N.ar    1  UNL1       -0.1336
     43 C         139.8335  145.6174  156.3759 C.ar    1  UNL1        0.1396
     44 N         140.1990  147.0667  156.2502 N.ar    1  UNL1       -0.3245
     45 H         140.9780  147.5050  156.6629 H       1  UNL1        0.1686
     46 N         139.0749  153.5261  153.8327 N.pl3   1  UNL1       -0.3426
     47 C         139.0985  152.0774  154.2208 C.ar    1  UNL1        0.1254
     48 C         138.5370  151.6459  155.5432 C.ar    1  UNL1        0.0340
     49 C         138.5607  150.1971  155.9312 C.ar    1  UNL1        0.0075
     50 C         139.1457  149.1799  154.9970 C.ar    1  UNL1        0.0550
     51 C         139.7072  149.6113  153.6747 C.ar    1  UNL1        0.1033
     52 N         139.6836  151.0601  153.2866 N.ar    1  UNL1       -0.2295
     53 H         138.6908  154.1938  154.4459 H       1  UNL1        0.1437
     54 H         139.4434  153.8093  152.9648 H       1  UNL1        0.1437
@<TRIPOS>BOND
     1    46    47    1
     2    47    48   ar
     3    48    49   ar
     4    49    50   ar
     5    50    40    1
     6    40    41   ar
     7    41    42   ar
     8    42    43   ar
     9    43    34    1
    10    34    35    1
    11    35    36    1
    12    36    37    1
    13    37    33    1
    14    33     1    1
    15     1     2   ar
    16     2     3   ar
    17     3     4   ar
    18     4     7    1
    19     7     8   ar
    20     8     9   ar
    21     9    10   ar
    22    10    11   ar
    23    11    17    1
    24    17    18    1
    25    18    19    1
    26    19    20    1
    27    20    23    1
    28    23    24    1
    29    24    25    1
    30    20    21    1
    31    21    22    1
    32    11    12   ar
    33    12    13   ar
    34    13    14   ar
    35    14    15   ar
    36    15    16   ar
    37    16    27    1
    38    27    28   ar
    39    28    29   ar
    40    29    30   ar
    41    30    31   ar
    42    31    32   ar
    43     4     5   ar
    44     5     6   ar
    45    37    38    1
    46    38    39    1
    47    43    44   ar
    48    50    51   ar
    49    51    52   ar
    50    52    47   ar
    51    44    40   ar
    52    39    34    1
    53     6     1   ar
    54    16     7   ar
    55    32    27   ar
    56    14     9   ar
    57    22    17    1
    58    46    53    1
    59    46    54    1
    60    25    26    1
    61    44    45    1
@<TRIPOS>MOLECULE
*****
 54 61 0 0 0
SMALL
GASTEIGER

@<TRIPOS>ATOM
      1 C         143.5179  139.8643  158.2653 C.ar    1  UNL1       -0.0061
      2 C         144.0779  139.8287  156.8742 C.ar    1  UNL1       -0.0029
      3 C         143.6906  138.7226  155.9380 C.ar    1  UNL1        0.0012
      4 C         142.7433  137.6521  156.3928 C.ar    1  UNL1        0.0177
      5 C         142.1834  137.6877  157.7839 C.ar    1  UNL1        0.0012
      6 C         142.5707  138.7938  158.7201 C.ar    1  UNL1       -0.0029
      7 C         142.3561  136.5461  155.4565 C.ar    1  UNL1        0.0829
      8 N         143.0710  135.2287  155.5154 N.ar    1  UNL1       -0.2264
      9 C         142.6837  134.1226  154.5791 C.ar    1  UNL1        0.1666
     10 N         143.3986  132.8053  154.6380 N.ar    1  UNL1       -0.1945
     11 C         143.0113  131.6993  153.7017 C.ar    1  UNL1        0.2216
     12 N         141.9091  131.9106  152.7064 N.ar    1  UNL1       -0.2120
     13 C         141.1942  133.2280  152.6475 C.ar    1  UNL1        0.1048
     14 C         141.5815  134.3340  153.5838 C.ar    1  UNL1        0.0551
     15 C         140.8666  135.6514  153.5249 C.ar    1  UNL1        0.0061
     16 C         141.2539  136.7574  154.4612 C.ar    1  UNL1        0.0179
     17 N         143.7262  130.3819  153.7606 N.pl3   1  UNL1       -0.2753
     18 C         143.8950  129.5638  152.5147 C.3     1  UNL1        0.1109
     19 C         144.6099  128.2465  152.5735 C.3     1  UNL1        0.0940
     20 N         145.1560  127.7471  153.8783 N.3     1  UNL1       -0.2677
     21 C         144.9873  128.5652  155.1242 C.3     1  UNL1        0.0940
     22 C         144.2723  129.8826  155.0653 C.3     1  UNL1        0.1109
     23 C         145.8709  126.4298  153.9372 C.3     1  UNL1        0.1043
     24 C         147.3664  126.3826  153.8310 C.3     1  UNL1        0.1544
     25 O         148.1426  127.6464  153.6072 O.3     1  UNL1       -0.3805
     26 H         147.9290  128.0064  152.7321 H       1  UNL1        0.2105
     27 C         140.5390  138.0748  154.4023 C.ar    1  UNL1        0.0015
     28 C         139.3748  138.3376  155.3110 C.ar    1  UNL1        0.0000
     29 C         138.6599  139.6549  155.2521 C.ar    1  UNL1        0.0000
     30 C         139.1091  140.7094  154.2846 C.ar    1  UNL1        0.0000
     31 C         140.2733  140.4466  153.3759 C.ar    1  UNL1        0.0000
     32 C         140.9882  139.1293  153.4348 C.ar    1  UNL1        0.0000
     33 C         143.9052  140.9703  159.2016 C.3     1  UNL1        0.0991
     34 C         142.9550  140.6414  163.5878 C.3     1  UNL1        0.0613
     35 C         144.0785  139.8388  163.0016 C.3     1  UNL1        0.0249
     36 C         144.3952  139.9485  161.5394 C.3     1  UNL1        0.0728
     37 N         143.5885  140.8607  160.6637 N.3     1  UNL1       -0.2689
     38 C         142.4651  141.6633  161.2500 C.3     1  UNL1        0.0728
     39 C         142.1483  141.5537  162.7120 C.3     1  UNL1        0.0249
     40 C         141.7387  140.9882  167.2573 C.ar    1  UNL1        0.1644
     41 N         142.5631  139.7379  167.3422 N.ar    1  UNL1       -0.1293
     42 N         143.1191  139.4558  165.9779 N.ar    1  UNL1       -0.1336
     43 C         142.6383  140.5317  165.0499 C.ar    1  UNL1        0.1396
     44 N         141.7852  141.4788  165.8406 N.ar    1  UNL1       -0.3245
     45 H         141.3348  142.2814  165.4911 H       1  UNL1        0.1686
     46 N         138.7753  143.5729  171.7892 N.pl3   1  UNL1       -0.3426
     47 C         139.5161  142.9268  170.6562 C.ar    1  UNL1        0.1254
     48 C         140.5459  143.7055  169.8925 C.ar    1  UNL1        0.0340
     49 C         141.2867  143.0592  168.7596 C.ar    1  UNL1        0.0075
     50 C         140.9978  141.6344  168.3903 C.ar    1  UNL1        0.0550
     51 C         139.9681  140.8557  169.1540 C.ar    1  UNL1        0.1033
     52 N         139.2272  141.5019  170.2870 N.ar    1  UNL1       -0.2295
     53 H         138.9649  144.5081  172.0316 H       1  UNL1        0.1437
     54 H         138.0994  143.0619  172.2905 H       1  UNL1        0.1437
@<TRIPOS>BOND
     1    46    47    1
     2    47    48   ar
     3    48    49   ar
     4    49    50   ar
     5    50    40    1
     6    40    41   ar
     7    41    42   ar
     8    42    43   ar
     9    43    34    1
    10    34    35    1
    11    35    36    1
    12    36    37    1
    13    37    33    1
    14    33     1    1
    15     1     2   ar
    16     2     3   ar
    17     3     4   ar
    18     4     7    1
    19     7     8   ar
    20     8     9   ar
    21     9    10   ar
    22    10    11   ar
    23    11    17    1
    24    17    18    1
    25    18    19    1
    26    19    20    1
    27    20    23    1
    28    23    24    1
    29    24    25    1
    30    20    21    1
    31    21    22    1
    32    11    12   ar
    33    12    13   ar
    34    13    14   ar
    35    14    15   ar
    36    15    16   ar
    37    16    27    1
    38    27    28   ar
    39    28    29   ar
    40    29    30   ar
    41    30    31   ar
    42    31    32   ar
    43     4     5   ar
    44     5     6   ar
    45    37    38    1
    46    38    39    1
    47    43    44   ar
    48    50    51   ar
    49    51    52   ar
    50    52    47   ar
    51    44    40   ar
    52    39    34    1
    53     6     1   ar
    54    16     7   ar
    55    32    27   ar
    56    14     9   ar
    57    22    17    1
    58    46    53    1
    59    46    54    1
    60    25    26    1
    61    44    45    1
@<TRIPOS>MOLECULE
*****
 54 61 0 0 0
SMALL
GASTEIGER

@<TRIPOS>ATOM
      1 C         140.9253  141.9830  162.4018 C.ar    1  UNL1       -0.0061
      2 C         142.3670  141.6340  162.1791 C.ar    1  UNL1       -0.0029
      3 C         142.7626  140.7985  160.9978 C.ar    1  UNL1        0.0012
      4 C         141.7164  140.3121  160.0392 C.ar    1  UNL1        0.0177
      5 C         140.2747  140.6611  160.2620 C.ar    1  UNL1        0.0012
      6 C         139.8792  141.4965  161.4433 C.ar    1  UNL1       -0.0029
      7 C         142.1120  139.4766  158.8578 C.ar    1  UNL1        0.0829
      8 N         142.3507  138.0053  159.0260 N.ar    1  UNL1       -0.2264
      9 C         142.7463  137.1698  157.8446 C.ar    1  UNL1        0.1666
     10 N         142.9849  135.6985  158.0128 N.ar    1  UNL1       -0.1945
     11 C         143.3805  134.8631  156.8314 C.ar    1  UNL1        0.2216
     12 N         143.5374  135.4990  155.4820 N.ar    1  UNL1       -0.2120
     13 C         143.2987  136.9703  155.3138 C.ar    1  UNL1        0.1048
     14 C         142.9031  137.8057  156.4952 C.ar    1  UNL1        0.0551
     15 C         142.6644  139.2771  156.3271 C.ar    1  UNL1        0.0061
     16 C         142.2688  140.1125  157.5084 C.ar    1  UNL1        0.0179
     17 N         143.6192  133.3918  156.9995 N.pl3   1  UNL1       -0.2753
     18 C         144.7977  132.9089  157.7920 C.3     1  UNL1        0.1109
     19 C         145.0365  131.4377  157.9601 C.3     1  UNL1        0.0940
     20 N         144.0967  130.4491  157.3357 N.3     1  UNL1       -0.2677
     21 C         142.9182  130.9320  156.5433 C.3     1  UNL1        0.0940
     22 C         142.6795  132.4034  156.3752 C.3     1  UNL1        0.1109
     23 C         144.3354  128.9779  157.5038 C.3     1  UNL1        0.1043
     24 C         143.7031  128.2413  158.6473 C.3     1  UNL1        0.1544
     25 O         143.2094  128.9972  159.8451 O.3     1  UNL1       -0.3805
     26 H         143.9622  129.3985  160.3070 H       1  UNL1        0.2105
     27 C         142.0301  141.5838  157.3403 C.ar    1  UNL1        0.0015
     28 C         140.7578  142.0702  156.7122 C.ar    1  UNL1        0.0000
     29 C         140.5190  143.5415  156.5441 C.ar    1  UNL1        0.0000
     30 C         141.5526  144.5264  157.0041 C.ar    1  UNL1        0.0000
     31 C         142.8250  144.0400  157.6322 C.ar    1  UNL1        0.0000
     32 C         143.0637  142.5687  157.8003 C.ar    1  UNL1        0.0000
     33 C         140.5298  142.8185  163.5832 C.3     1  UNL1        0.0991
     34 C         139.6940  140.8583  167.5467 C.3     1  UNL1        0.0613
     35 C         140.4508  142.1523  167.4947 C.3     1  UNL1        0.0249
     36 C         140.7294  142.8057  166.1735 C.3     1  UNL1        0.0728
     37 N         140.2512  142.1651  164.9043 N.3     1  UNL1       -0.2689
     38 C         139.4943  140.8710  164.9563 C.3     1  UNL1        0.0728
     39 C         139.2157  140.2176  166.2774 C.3     1  UNL1        0.0249
     40 C         138.2711  139.0986  170.7000 C.ar    1  UNL1        0.1644
     41 N         139.7022  139.3002  171.1016 N.ar    1  UNL1       -0.1293
     42 N         140.4094  139.9839  169.9692 N.ar    1  UNL1       -0.1336
     43 C         139.4154  140.2049  168.8678 C.ar    1  UNL1        0.1396
     44 N         138.0938  139.6577  169.3195 N.ar    1  UNL1       -0.3245
     45 H         137.2570  139.6644  168.8009 H       1  UNL1        0.1686
     46 N         134.0046  136.5100  174.0313 N.pl3   1  UNL1       -0.3426
     47 C         135.0712  137.1572  173.1985 C.ar    1  UNL1        0.1254
     48 C         136.4464  136.5602  173.1450 C.ar    1  UNL1        0.0340
     49 C         137.5129  137.2074  172.3121 C.ar    1  UNL1        0.0075
     50 C         137.2045  138.4514  171.5329 C.ar    1  UNL1        0.0550
     51 C         135.8294  139.0483  171.5864 C.ar    1  UNL1        0.1033
     52 N         134.7628  138.4012  172.4192 N.ar    1  UNL1       -0.2295
     53 H         134.2071  135.6935  174.5428 H       1  UNL1        0.1437
     54 H         133.1021  136.9018  174.0665 H       1  UNL1        0.1437
@<TRIPOS>BOND
     1    46    47    1
     2    47    48   ar
     3    48    49   ar
     4    49    50   ar
     5    50    40    1
     6    40    41   ar
     7    41    42   ar
     8    42    43   ar
     9    43    34    1
    10    34    35    1
    11    35    36    1
    12    36    37    1
    13    37    33    1
    14    33     1    1
    15     1     2   ar
    16     2     3   ar
    17     3     4   ar
    18     4     7    1
    19     7     8   ar
    20     8     9   ar
    21     9    10   ar
    22    10    11   ar
    23    11    17    1
    24    17    18    1
    25    18    19    1
    26    19    20    1
    27    20    23    1
    28    23    24    1
    29    24    25    1
    30    20    21    1
    31    21    22    1
    32    11    12   ar
    33    12    13   ar
    34    13    14   ar
    35    14    15   ar
    36    15    16   ar
    37    16    27    1
    38    27    28   ar
    39    28    29   ar
    40    29    30   ar
    41    30    31   ar
    42    31    32   ar
    43     4     5   ar
    44     5     6   ar
    45    37    38    1
    46    38    39    1
    47    43    44   ar
    48    50    51   ar
    49    51    52   ar
    50    52    47   ar
    51    44    40   ar
    52    39    34    1
    53     6     1   ar
    54    16     7   ar
    55    32    27   ar
    56    14     9   ar
    57    22    17    1
    58    46    53    1
    59    46    54    1
    60    25    26    1
    61    44    45    1
@<TRIPOS>MOLECULE
*****
 54 61 0 0 0
SMALL
GASTEIGER

@<TRIPOS>ATOM
      1 C         139.5553  142.7997  155.7879 C.ar    1  UNL1       -0.0061
      2 C         141.0151  142.6393  156.0932 C.ar    1  UNL1       -0.0029
      3 C         141.4489  141.8256  157.2762 C.ar    1  UNL1        0.0012
      4 C         140.4228  141.1722  158.1539 C.ar    1  UNL1        0.0177
      5 C         138.9631  141.3325  157.8486 C.ar    1  UNL1        0.0012
      6 C         138.5293  142.1463  156.6656 C.ar    1  UNL1       -0.0029
      7 C         140.8567  140.3583  159.3370 C.ar    1  UNL1        0.0829
      8 N         140.8881  140.9779  160.7026 N.ar    1  UNL1       -0.2264
      9 C         141.3220  140.1641  161.8857 C.ar    1  UNL1        0.1666
     10 N         141.3534  140.7837  163.2513 N.ar    1  UNL1       -0.1945
     11 C         141.7872  139.9699  164.4343 C.ar    1  UNL1        0.2216
     12 N         142.1896  138.5365  164.2516 N.ar    1  UNL1       -0.2120
     13 C         142.1582  137.9169  162.8859 C.ar    1  UNL1        0.1048
     14 C         141.7244  138.7307  161.7030 C.ar    1  UNL1        0.0551
     15 C         141.6929  138.1111  160.3372 C.ar    1  UNL1        0.0061
     16 C         141.2591  138.9249  159.1543 C.ar    1  UNL1        0.0179
     17 N         141.8186  140.5895  165.8000 N.pl3   1  UNL1       -0.2753
     18 C         140.7750  140.2241  166.8136 C.3     1  UNL1        0.1109
     19 C         140.8064  140.8436  168.1792 C.3     1  UNL1        0.0940
     20 N         141.8815  141.8286  168.5315 N.3     1  UNL1       -0.2677
     21 C         142.9252  142.1940  167.5180 C.3     1  UNL1        0.0940
     22 C         142.8937  141.5744  166.1522 C.3     1  UNL1        0.1109
     23 C         141.9129  142.4481  169.8972 C.3     1  UNL1        0.1043
     24 C         140.6407  142.6165  170.6738 C.3     1  UNL1        0.1544
     25 O         140.5414  142.0882  172.0742 O.3     1  UNL1       -0.3805
     26 H         140.5954  141.1198  172.0590 H       1  UNL1        0.2105
     27 C         141.2277  138.3053  157.7885 C.ar    1  UNL1        0.0015
     28 C         139.9353  137.7890  157.2288 C.ar    1  UNL1        0.0000
     29 C         139.9038  137.1694  155.8631 C.ar    1  UNL1        0.0000
     30 C         141.1647  137.0662  155.0572 C.ar    1  UNL1        0.0000
     31 C         142.4570  137.5825  155.6169 C.ar    1  UNL1        0.0000
     32 C         142.4885  138.2021  156.9826 C.ar    1  UNL1        0.0000
     33 C         139.1215  143.6136  154.6049 C.3     1  UNL1        0.0991
     34 C         139.8117  148.0600  154.5576 C.3     1  UNL1        0.0613
     35 C         138.6978  147.4827  155.3796 C.3     1  UNL1        0.0249
     36 C         138.4677  146.0005  155.3954 C.3     1  UNL1        0.0728
     37 N         139.3516  145.0957  154.5891 N.3     1  UNL1       -0.2689
     38 C         140.4655  145.6730  153.7670 C.3     1  UNL1        0.0728
     39 C         140.6956  147.1552  153.7513 C.3     1  UNL1        0.0249
     40 C         141.0795  151.7138  154.2290 C.ar    1  UNL1        0.1644
     41 N         139.7123  151.9322  154.8061 N.ar    1  UNL1       -0.1293
     42 N         139.0710  150.5901  154.9994 N.ar    1  UNL1       -0.1336
     43 C         140.0418  149.5422  154.5418 C.ar    1  UNL1        0.1396
     44 N         141.2832  150.2366  154.0656 N.ar    1  UNL1       -0.3245
     45 H         142.0899  149.7997  153.7086 H       1  UNL1        0.1686
     46 N         145.0388  155.9966  152.8210 N.pl3   1  UNL1       -0.3426
     47 C         144.0490  154.9259  153.1730 C.ar    1  UNL1        0.1254
     48 C         144.4956  153.7122  153.9330 C.ar    1  UNL1        0.0340
     49 C         143.5057  152.6415  154.2850 C.ar    1  UNL1        0.0075
     50 C         142.0693  152.7845  153.8770 C.ar    1  UNL1        0.0550
     51 C         141.6228  153.9981  153.1170 C.ar    1  UNL1        0.1033
     52 N         142.6126  155.0689  152.7650 N.ar    1  UNL1       -0.2295
     53 H         145.9815  155.9028  153.0888 H       1  UNL1        0.1437
     54 H         144.7457  156.7932  152.3222 H       1  UNL1        0.1437
@<TRIPOS>BOND
     1    46    47    1
     2    47    48   ar
     3    48    49   ar
     4    49    50   ar
     5    50    40    1
     6    40    41   ar
     7    41    42   ar
     8    42    43   ar
     9    43    34    1
    10    34    35    1
    11    35    36    1
    12    36    37    1
    13    37    33    1
    14    33     1    1
    15     1     2   ar
    16     2     3   ar
    17     3     4   ar
    18     4     7    1
    19     7     8   ar
    20     8     9   ar
    21     9    10   ar
    22    10    11   ar
    23    11    17    1
    24    17    18    1
    25    18    19    1
    26    19    20    1
    27    20    23    1
    28    23    24    1
    29    24    25    1
    30    20    21    1
    31    21    22    1
    32    11    12   ar
    33    12    13   ar
    34    13    14   ar
    35    14    15   ar
    36    15    16   ar
    37    16    27    1
    38    27    28   ar
    39    28    29   ar
    40    29    30   ar
    41    30    31   ar
    42    31    32   ar
    43     4     5   ar
    44     5     6   ar
    45    37    38    1
    46    38    39    1
    47    43    44   ar
    48    50    51   ar
    49    51    52   ar
    50    52    47   ar
    51    44    40   ar
    52    39    34    1
    53     6     1   ar
    54    16     7   ar
    55    32    27   ar
    56    14     9   ar
    57    22    17    1
    58    46    53    1
    59    46    54    1
    60    25    26    1
    61    44    45    1
@<TRIPOS>MOLECULE
*****
 54 61 0 0 0
SMALL
GASTEIGER

@<TRIPOS>ATOM
      1 C         142.1660  140.9074  160.8350 C.ar    1  UNL1       -0.0061
      2 C         141.1031  140.0131  161.4010 C.ar    1  UNL1       -0.0029
      3 C         140.8941  139.9427  162.8847 C.ar    1  UNL1        0.0012
      4 C         141.7479  140.7666  163.8023 C.ar    1  UNL1        0.0177
      5 C         142.8108  141.6609  163.2363 C.ar    1  UNL1        0.0012
      6 C         143.0199  141.7313  161.7527 C.ar    1  UNL1       -0.0029
      7 C         141.5388  140.6962  165.2861 C.ar    1  UNL1        0.0829
      8 N         142.4145  139.8142  166.1259 N.ar    1  UNL1       -0.2264
      9 C         142.2054  139.7438  167.6096 C.ar    1  UNL1        0.1666
     10 N         143.0810  138.8618  168.4494 N.ar    1  UNL1       -0.1945
     11 C         142.8719  138.7915  169.9330 C.ar    1  UNL1        0.2216
     12 N         141.7871  139.6030  170.5769 N.ar    1  UNL1       -0.2120
     13 C         140.9114  140.4850  169.7371 C.ar    1  UNL1        0.1048
     14 C         141.1206  140.5554  168.2534 C.ar    1  UNL1        0.0551
     15 C         140.2449  141.4374  167.4136 C.ar    1  UNL1        0.0061
     16 C         140.4540  141.5078  165.9299 C.ar    1  UNL1        0.0179
     17 N         143.7476  137.9094  170.7729 N.pl3   1  UNL1       -0.2753
     18 C         143.7271  136.4230  170.5728 C.3     1  UNL1        0.1109
     19 C         144.6027  135.5410  171.4126 C.3     1  UNL1        0.0940
     20 N         145.4989  136.1454  172.4526 N.3     1  UNL1       -0.2677
     21 C         145.5193  137.6319  172.6528 C.3     1  UNL1        0.0940
     22 C         144.6437  138.5139  171.8129 C.3     1  UNL1        0.1109
     23 C         146.3745  135.2635  173.2924 C.3     1  UNL1        0.1043
     24 C         146.2964  133.7725  173.1476 C.3     1  UNL1        0.1544
     25 O         146.4918  132.8913  174.3456 O.3     1  UNL1       -0.3805
     26 H         147.4042  132.9759  174.6638 H       1  UNL1        0.2105
     27 C         139.5783  142.3898  165.0900 C.ar    1  UNL1        0.0015
     28 C         138.3356  141.8327  164.4613 C.ar    1  UNL1        0.0000
     29 C         137.4599  142.7147  163.6214 C.ar    1  UNL1        0.0000
     30 C         137.8270  144.1536  163.4103 C.ar    1  UNL1        0.0000
     31 C         139.0697  144.7107  164.0391 C.ar    1  UNL1        0.0000
     32 C         139.9454  143.8288  164.8790 C.ar    1  UNL1        0.0000
     33 C         142.3751  140.9778  159.3513 C.3     1  UNL1        0.0991
     34 C         141.6994  137.3274  156.8080 C.3     1  UNL1        0.0613
     35 C         140.8430  138.5439  156.6166 C.3     1  UNL1        0.0249
     36 C         141.0683  139.7607  157.4644 C.3     1  UNL1        0.0728
     37 N         142.1499  139.7610  158.5035 N.3     1  UNL1       -0.2689
     38 C         143.0064  138.5445  158.6950 C.3     1  UNL1        0.0728
     39 C         142.7811  137.3278  157.8473 C.3     1  UNL1        0.0249
     40 C         141.4065  133.8062  155.2017 C.ar    1  UNL1        0.1644
     41 N         140.8487  134.6702  154.1097 N.ar    1  UNL1       -0.1293
     42 N         140.8905  136.0944  154.5786 N.ar    1  UNL1       -0.1336
     43 C         141.4742  136.1107  155.9603 C.ar    1  UNL1        0.1396
     44 N         141.7931  134.6965  156.3454 N.ar    1  UNL1       -0.3245
     45 H         142.1870  134.4040  157.1989 H       1  UNL1        0.1686
     46 N         141.9893  127.8371  155.0257 N.pl3   1  UNL1       -0.3426
     47 C         141.8436  129.3294  155.0697 C.ar    1  UNL1        0.1254
     48 C         140.9050  130.0195  154.1247 C.ar    1  UNL1        0.0340
     49 C         140.7594  131.5118  154.1688 C.ar    1  UNL1        0.0075
     50 C         141.5522  132.3139  155.1577 C.ar    1  UNL1        0.0550
     51 C         142.4907  131.6238  156.1027 C.ar    1  UNL1        0.1033
     52 N         142.6364  130.1315  156.0587 N.ar    1  UNL1       -0.2295
     53 H         141.4689  127.3106  154.3766 H       1  UNL1        0.1437
     54 H         142.6053  127.3841  155.6459 H       1  UNL1        0.1437
@<TRIPOS>BOND
     1    46    47    1
     2    47    48   ar
     3    48    49   ar
     4    49    50   ar
     5    50    40    1
     6    40    41   ar
     7    41    42   ar
     8    42    43   ar
     9    43    34    1
    10    34    35    1
    11    35    36    1
    12    36    37    1
    13    37    33    1
    14    33     1    1
    15     1     2   ar
    16     2     3   ar
    17     3     4   ar
    18     4     7    1
    19     7     8   ar
    20     8     9   ar
    21     9    10   ar
    22    10    11   ar
    23    11    17    1
    24    17    18    1
    25    18    19    1
    26    19    20    1
    27    20    23    1
    28    23    24    1
    29    24    25    1
    30    20    21    1
    31    21    22    1
    32    11    12   ar
    33    12    13   ar
    34    13    14   ar
    35    14    15   ar
    36    15    16   ar
    37    16    27    1
    38    27    28   ar
    39    28    29   ar
    40    29    30   ar
    41    30    31   ar
    42    31    32   ar
    43     4     5   ar
    44     5     6   ar
    45    37    38    1
    46    38    39    1
    47    43    44   ar
    48    50    51   ar
    49    51    52   ar
    50    52    47   ar
    51    44    40   ar
    52    39    34    1
    53     6     1   ar
    54    16     7   ar
    55    32    27   ar
    56    14     9   ar
    57    22    17    1
    58    46    53    1
    59    46    54    1
    60    25    26    1
    61    44    45    1
