@<TRIPOS>MOLECULE
*****
 33 36 0 0 0
SMALL
GASTEIGER

@<TRIPOS>ATOM
      1 C         139.4450  140.5995  165.9106 C.ar    1  UNL1        0.0040
      2 C         139.4360  139.9866  167.2796 C.ar    1  UNL1        0.0016
      3 C         139.9311  140.7734  168.4568 C.ar    1  UNL1        0.0712
      4 C         140.4352  142.1731  168.2649 C.ar    1  UNL1        0.0038
      5 C         140.4442  142.7860  166.8959 C.ar    1  UNL1       -0.0003
      6 C         139.9491  141.9992  165.7187 C.ar    1  UNL1       -0.0019
      7 C         139.9221  140.1605  169.8259 C.3     1  UNL1        0.4186
      8 F         139.9130  139.5477  171.1949 F       1  UNL1       -0.1659
      9 F         138.7239  140.9871  170.1880 F       1  UNL1       -0.1659
     10 F         141.1202  139.3339  169.4638 F       1  UNL1       -0.1659
     11 C         139.9581  142.6121  164.3496 C.2     1  UNL1        0.0044
     12 C         141.0877  143.5085  163.9366 C.2     1  UNL1        0.0579
     13 C         141.0967  144.1213  162.5676 C.2     1  UNL1        0.2492
     14 O         140.2874  145.3540  162.2923 O.2     1  UNL1       -0.2699
     15 N         141.9150  143.5016  161.4739 N.am    1  UNL1       -0.2761
     16 C         142.7243  142.2691  161.7491 C.3     1  UNL1        0.0942
     17 C         143.5426  141.6494  160.6553 C.3     1  UNL1        0.0308
     18 C         143.5517  142.2623  159.2863 C.3     1  UNL1        0.0816
     19 C         142.7424  143.4949  159.0110 C.3     1  UNL1        0.0308
     20 C         141.9240  144.1146  160.1048 C.3     1  UNL1        0.0942
     21 C         144.3700  141.6426  158.1925 C.ar    1  UNL1        0.2257
     22 N         144.2583  140.2301  157.7001 N.ar    1  UNL1       -0.1117
     23 N         145.2630  140.0411  156.6024 N.ar    1  UNL1       -0.1117
     24 C         145.9956  141.3367  156.4164 C.ar    1  UNL1        0.2266
     25 C         147.0882  141.5970  155.4222 C.3     1  UNL1        0.0967
     26 O         145.4437  142.3265  157.3992 O.2     1  UNL1       -0.4233
     27 C         138.9499  139.8127  164.7333 C.3     1  UNL1        0.1776
     28 C         143.3423  138.2418  162.2594 C.3     1  UNL1        0.0776
     29 C         141.9324  138.2923  162.7689 C.ar    1  UNL1        0.1838
     30 N         140.8599  137.2794  162.4972 N.ar    1  UNL1       -0.1123
     31 N         139.6121  137.7257  163.2000 N.ar    1  UNL1       -0.0451
     32 N         139.9135  139.0144  163.9060 N.ar    1  UNL1       -0.1467
     33 N         141.3475  139.3645  163.6396 N.ar    1  UNL1       -0.1339
@<TRIPOS>BOND
     1    28    29    1
     2    29    30   ar
     3    30    31   ar
     4    31    32   ar
     5    32    27    1
     6    27     1    1
     7     1     2   ar
     8     2     3   ar
     9     3     7    1
    10     7     8    1
    11     7     9    1
    12     7    10    1
    13     3     4   ar
    14     4     5   ar
    15     5     6   ar
    16     6    11    1
    17    11    12    2
    18    12    13    1
    19    13    14    2
    20    13    15   am
    21    15    16    1
    22    16    17    1
    23    17    18    1
    24    18    21    1
    25    21    22   ar
    26    22    23   ar
    27    23    24   ar
    28    24    25    1
    29    24    26   ar
    30    18    19    1
    31    19    20    1
    32    32    33   ar
    33    33    29   ar
    34     6     1   ar
    35    20    15    1
    36    26    21   ar
@<TRIPOS>MOLECULE
*****
 33 36 0 0 0
SMALL
GASTEIGER

@<TRIPOS>ATOM
      1 C         140.7694  143.0209  165.7864 C.ar    1  UNL1        0.0040
      2 C         140.1007  143.1849  167.1190 C.ar    1  UNL1        0.0016
      3 C         140.8122  142.7669  168.3716 C.ar    1  UNL1        0.0712
      4 C         142.1924  142.1849  168.2916 C.ar    1  UNL1        0.0038
      5 C         142.8610  142.0209  166.9590 C.ar    1  UNL1       -0.0003
      6 C         142.1496  142.4389  165.7064 C.ar    1  UNL1       -0.0019
      7 C         140.1435  142.9309  169.7043 C.3     1  UNL1        0.4186
      8 F         139.4749  143.0948  171.0370 F       1  UNL1       -0.1659
      9 F         139.6635  141.5113  169.6381 F       1  UNL1       -0.1659
     10 F         140.6235  144.3504  169.7706 F       1  UNL1       -0.1659
     11 C         142.8182  142.2750  164.3737 C.2     1  UNL1        0.0044
     12 C         143.3098  140.9251  163.9422 C.2     1  UNL1        0.0579
     13 C         143.9784  140.7611  162.6096 C.2     1  UNL1        0.2492
     14 O         145.3864  141.2395  162.4130 O.2     1  UNL1       -0.2699
     15 N         143.2391  140.1186  161.4735 N.am    1  UNL1       -0.2761
     16 C         141.8311  139.6401  161.6701 C.3     1  UNL1        0.0942
     17 C         141.0918  138.9977  160.5340 C.3     1  UNL1        0.0308
     18 C         141.7605  138.8337  159.2014 C.3     1  UNL1        0.0816
     19 C         143.1685  139.3121  159.0047 C.3     1  UNL1        0.0308
     20 C         143.9078  139.9546  160.1408 C.3     1  UNL1        0.0942
     21 C         141.0212  138.1912  158.0653 C.ar    1  UNL1        0.2257
     22 N         139.5575  138.3371  157.7711 N.ar    1  UNL1       -0.1117
     23 N         139.2475  137.5261  156.5479 N.ar    1  UNL1       -0.1117
     24 C         140.5194  136.8790  156.0861 C.ar    1  UNL1        0.2266
     25 C         140.6690  135.9789  154.8956 C.3     1  UNL1        0.0967
     26 O         141.6156  137.2901  157.0239 O.2     1  UNL1       -0.4233
     27 C         140.0579  143.4390  164.5338 C.3     1  UNL1        0.1776
     28 C         137.9146  139.1291  162.3630 C.3     1  UNL1        0.0776
     29 C         138.0982  140.5252  162.8801 C.ar    1  UNL1        0.1838
     30 N         137.0692  141.6163  162.8571 N.ar    1  UNL1       -0.1123
     31 N         137.6781  142.8407  163.4738 N.ar    1  UNL1       -0.0451
     32 N         139.0834  142.5062  163.8779 N.ar    1  UNL1       -0.1467
     33 N         139.3430  141.0751  163.5109 N.ar    1  UNL1       -0.1339
@<TRIPOS>BOND
     1    28    29    1
     2    29    30   ar
     3    30    31   ar
     4    31    32   ar
     5    32    27    1
     6    27     1    1
     7     1     2   ar
     8     2     3   ar
     9     3     7    1
    10     7     8    1
    11     7     9    1
    12     7    10    1
    13     3     4   ar
    14     4     5   ar
    15     5     6   ar
    16     6    11    1
    17    11    12    2
    18    12    13    1
    19    13    14    2
    20    13    15   am
    21    15    16    1
    22    16    17    1
    23    17    18    1
    24    18    21    1
    25    21    22   ar
    26    22    23   ar
    27    23    24   ar
    28    24    25    1
    29    24    26   ar
    30    18    19    1
    31    19    20    1
    32    32    33   ar
    33    33    29   ar
    34     6     1   ar
    35    20    15    1
    36    26    21   ar
@<TRIPOS>MOLECULE
*****
 33 36 0 0 0
SMALL
GASTEIGER

@<TRIPOS>ATOM
      1 C         142.1559  139.4563  166.2855 C.ar    1  UNL1        0.0040
      2 C         142.9075  139.3554  167.5796 C.ar    1  UNL1        0.0016
      3 C         142.2073  139.6315  168.8771 C.ar    1  UNL1        0.0712
      4 C         140.7555  140.0085  168.8804 C.ar    1  UNL1        0.0038
      5 C         140.0039  140.1094  167.5862 C.ar    1  UNL1       -0.0003
      6 C         140.7041  139.8333  166.2888 C.ar    1  UNL1       -0.0019
      7 C         142.9589  139.5306  170.1713 C.3     1  UNL1        0.4186
      8 F         143.7105  139.4297  171.4655 F       1  UNL1       -0.1659
      9 F         142.4947  138.1132  170.3304 F       1  UNL1       -0.1659
     10 F         143.4232  140.9480  170.0122 F       1  UNL1       -0.1659
     11 C         139.9525  139.9341  164.9946 C.2     1  UNL1        0.0044
     12 C         139.4136  141.2586  164.5415 C.2     1  UNL1        0.0579
     13 C         138.6620  141.3596  163.2473 C.2     1  UNL1        0.2492
     14 O         137.3758  140.6092  163.0665 O.2     1  UNL1       -0.2699
     15 N         139.1967  142.2108  162.1339 N.am    1  UNL1       -0.2761
     16 C         140.4828  142.9611  162.3147 C.3     1  UNL1        0.0942
     17 C         141.0175  143.8123  161.2013 C.3     1  UNL1        0.0308
     18 C         140.2659  143.9132  159.9071 C.3     1  UNL1        0.0816
     19 C         138.9796  143.1628  159.7263 C.3     1  UNL1        0.0308
     20 C         138.4450  142.3116  160.8397 C.3     1  UNL1        0.0942
     21 C         140.8005  144.7644  158.7937 C.ar    1  UNL1        0.2257
     22 N         142.1753  145.3597  158.7212 N.ar    1  UNL1       -0.1117
     23 N         142.2787  146.1330  157.4400 N.ar    1  UNL1       -0.1117
     24 C         140.9677  146.0155  156.7207 C.ar    1  UNL1        0.2266
     25 C         140.6295  146.6351  155.3972 C.3     1  UNL1        0.0967
     26 O         140.0541  145.1697  157.5574 O.2     1  UNL1       -0.4233
     27 C         142.8562  139.1801  164.9880 C.3     1  UNL1        0.1776
     28 C         144.2957  143.8371  162.9579 C.3     1  UNL1        0.0776
     29 C         144.3187  142.4009  163.3901 C.ar    1  UNL1        0.1838
     30 N         145.4600  141.4443  163.2105 N.ar    1  UNL1       -0.1123
     31 N         145.0510  140.1213  163.7872 N.ar    1  UNL1       -0.0451
     32 N         143.6570  140.2603  164.3232 N.ar    1  UNL1       -0.1467
     33 N         143.2044  141.6692  164.0778 N.ar    1  UNL1       -0.1339
@<TRIPOS>BOND
     1    28    29    1
     2    29    30   ar
     3    30    31   ar
     4    31    32   ar
     5    32    27    1
     6    27     1    1
     7     1     2   ar
     8     2     3   ar
     9     3     7    1
    10     7     8    1
    11     7     9    1
    12     7    10    1
    13     3     4   ar
    14     4     5   ar
    15     5     6   ar
    16     6    11    1
    17    11    12    2
    18    12    13    1
    19    13    14    2
    20    13    15   am
    21    15    16    1
    22    16    17    1
    23    17    18    1
    24    18    21    1
    25    21    22   ar
    26    22    23   ar
    27    23    24   ar
    28    24    25    1
    29    24    26   ar
    30    18    19    1
    31    19    20    1
    32    32    33   ar
    33    33    29   ar
    34     6     1   ar
    35    20    15    1
    36    26    21   ar
@<TRIPOS>MOLECULE
*****
 33 36 0 0 0
SMALL
GASTEIGER

@<TRIPOS>ATOM
      1 C         140.5029  143.5673  159.9687 C.ar    1  UNL1        0.0040
      2 C         140.5122  144.7699  159.0723 C.ar    1  UNL1        0.0016
      3 C         140.1586  144.6267  157.6217 C.ar    1  UNL1        0.0712
      4 C         139.7957  143.2810  157.0674 C.ar    1  UNL1        0.0038
      5 C         139.7864  142.0784  157.9639 C.ar    1  UNL1       -0.0003
      6 C         140.1400  142.2215  159.4145 C.ar    1  UNL1       -0.0019
      7 C         140.1679  145.8294  156.7252 C.3     1  UNL1        0.4186
      8 F         140.1772  147.0319  155.8287 F       1  UNL1       -0.1659
      9 F         138.8640  145.3927  156.1259 F       1  UNL1       -0.1659
     10 F         141.4718  146.2660  157.3244 F       1  UNL1       -0.1659
     11 C         140.1307  141.0189  160.3110 C.2     1  UNL1        0.0044
     12 C         138.8469  140.5592  160.9359 C.2     1  UNL1        0.0579
     13 C         138.8375  139.3566  161.8324 C.2     1  UNL1        0.2492
     14 O         138.7199  137.9824  161.2426 O.2     1  UNL1       -0.2699
     15 N         138.9458  139.5282  163.3186 N.am    1  UNL1       -0.2761
     16 C         139.0634  140.9023  163.9083 C.3     1  UNL1        0.0942
     17 C         139.1717  141.0739  165.3945 C.3     1  UNL1        0.0308
     18 C         139.1623  139.8713  166.2910 C.3     1  UNL1        0.0816
     19 C         139.0447  138.4971  165.7013 C.3     1  UNL1        0.0308
     20 C         138.9364  138.3255  164.2150 C.3     1  UNL1        0.0942
     21 C         139.2706  140.0429  167.7772 C.ar    1  UNL1        0.2257
     22 N         138.3461  139.4559  168.8022 N.ar    1  UNL1       -0.1117
     23 N         138.8265  139.8818  170.1579 N.ar    1  UNL1       -0.1117
     24 C         140.0480  140.7321  169.9707 C.ar    1  UNL1        0.2266
     25 C         140.8535  141.3707  171.0631 C.3     1  UNL1        0.0967
     26 O         140.3224  140.8317  168.4994 O.2     1  UNL1       -0.4233
     27 C         140.8566  143.7104  161.4194 C.3     1  UNL1        0.1776
     28 C         138.4215  145.0783  165.9006 C.3     1  UNL1        0.0776
     29 C         138.6681  144.6485  164.4848 C.ar    1  UNL1        0.1838
     30 N         137.6160  144.3430  163.4602 N.ar    1  UNL1       -0.1123
     31 N         138.3078  143.9544  162.1872 N.ar    1  UNL1       -0.0451
     32 N         139.7874  144.0197  162.4250 N.ar    1  UNL1       -0.1467
     33 N         140.0100  144.4487  163.8450 N.ar    1  UNL1       -0.1339
@<TRIPOS>BOND
     1    28    29    1
     2    29    30   ar
     3    30    31   ar
     4    31    32   ar
     5    32    27    1
     6    27     1    1
     7     1     2   ar
     8     2     3   ar
     9     3     7    1
    10     7     8    1
    11     7     9    1
    12     7    10    1
    13     3     4   ar
    14     4     5   ar
    15     5     6   ar
    16     6    11    1
    17    11    12    2
    18    12    13    1
    19    13    14    2
    20    13    15   am
    21    15    16    1
    22    16    17    1
    23    17    18    1
    24    18    21    1
    25    21    22   ar
    26    22    23   ar
    27    23    24   ar
    28    24    25    1
    29    24    26   ar
    30    18    19    1
    31    19    20    1
    32    32    33   ar
    33    33    29   ar
    34     6     1   ar
    35    20    15    1
    36    26    21   ar
@<TRIPOS>MOLECULE
*****
 33 36 0 0 0
SMALL
GASTEIGER

@<TRIPOS>ATOM
      1 C         140.7871  141.7119  166.8039 C.ar    1  UNL1        0.0040
      2 C         141.3394  142.5577  167.9127 C.ar    1  UNL1        0.0016
      3 C         142.3380  141.9793  168.8710 C.ar    1  UNL1        0.0712
      4 C         142.7842  140.5551  168.7204 C.ar    1  UNL1        0.0038
      5 C         142.2319  139.7093  167.6116 C.ar    1  UNL1       -0.0003
      6 C         141.2333  140.2877  166.6534 C.ar    1  UNL1       -0.0019
      7 C         142.8904  142.8251  169.9799 C.3     1  UNL1        0.4186
      8 F         143.4427  143.6709  171.0887 F       1  UNL1       -0.1659
      9 F         141.5985  143.5846  170.0441 F       1  UNL1       -0.1659
     10 F         144.1823  142.0656  169.9157 F       1  UNL1       -0.1659
     11 C         140.6809  139.4419  165.5445 C.2     1  UNL1        0.0044
     12 C         141.4393  139.3036  164.2577 C.2     1  UNL1        0.0579
     13 C         140.8870  138.4578  163.1488 C.2     1  UNL1        0.2492
     14 O         141.0365  136.9660  163.1976 O.2     1  UNL1       -0.2699
     15 N         140.1851  139.1038  161.9912 N.am    1  UNL1       -0.2761
     16 C         140.0355  140.5955  161.9425 C.3     1  UNL1        0.0942
     17 C         139.3336  141.2414  160.7848 C.3     1  UNL1        0.0308
     18 C         138.7812  140.3957  159.6760 C.3     1  UNL1        0.0816
     19 C         138.9308  138.9039  159.7247 C.3     1  UNL1        0.0308
     20 C         139.6327  138.2579  160.8823 C.3     1  UNL1        0.0942
     21 C         138.0793  141.0416  158.5184 C.ar    1  UNL1        0.2257
     22 N         138.2998  142.4400  158.0225 N.ar    1  UNL1       -0.1117
     23 N         137.3904  142.6652  156.8510 N.ar    1  UNL1       -0.1117
     24 C         136.6080  141.4060  156.6229 C.ar    1  UNL1        0.2266
     25 C         135.5802  141.1884  155.5522 C.3     1  UNL1        0.0967
     26 O         137.0337  140.4026  157.6533 O.2     1  UNL1       -0.4233
     27 C         139.7885  142.2902  165.8456 C.3     1  UNL1        0.1776
     28 C         139.8962  145.9507  162.0416 C.3     1  UNL1        0.0776
     29 C         140.3012  144.8385  162.9630 C.ar    1  UNL1        0.1838
     30 N         141.6275  144.1379  162.9698 N.ar    1  UNL1       -0.1123
     31 N         141.5968  143.0980  164.0505 N.ar    1  UNL1       -0.0451
     32 N         140.2516  143.1560  164.7115 N.ar    1  UNL1       -0.1467
     33 N         139.4509  144.2316  164.0395 N.ar    1  UNL1       -0.1339
@<TRIPOS>BOND
     1    28    29    1
     2    29    30   ar
     3    30    31   ar
     4    31    32   ar
     5    32    27    1
     6    27     1    1
     7     1     2   ar
     8     2     3   ar
     9     3     7    1
    10     7     8    1
    11     7     9    1
    12     7    10    1
    13     3     4   ar
    14     4     5   ar
    15     5     6   ar
    16     6    11    1
    17    11    12    2
    18    12    13    1
    19    13    14    2
    20    13    15   am
    21    15    16    1
    22    16    17    1
    23    17    18    1
    24    18    21    1
    25    21    22   ar
    26    22    23   ar
    27    23    24   ar
    28    24    25    1
    29    24    26   ar
    30    18    19    1
    31    19    20    1
    32    32    33   ar
    33    33    29   ar
    34     6     1   ar
    35    20    15    1
    36    26    21   ar
@<TRIPOS>MOLECULE
*****
 33 36 0 0 0
SMALL
GASTEIGER

@<TRIPOS>ATOM
      1 C         138.2760  139.9606  163.2294 C.ar    1  UNL1        0.0040
      2 C         138.0184  140.0972  164.7008 C.ar    1  UNL1        0.0016
      3 C         138.3979  138.9866  165.6349 C.ar    1  UNL1        0.0712
      4 C         139.0351  137.7395  165.0976 C.ar    1  UNL1        0.0038
      5 C         139.2927  137.6029  163.6262 C.ar    1  UNL1       -0.0003
      6 C         138.9132  138.7135  162.6922 C.ar    1  UNL1       -0.0019
      7 C         138.1403  139.1231  167.1063 C.3     1  UNL1        0.4186
      8 F         137.8827  139.2596  168.5777 F       1  UNL1       -0.1659
      9 F         139.1290  140.2490  167.1749 F       1  UNL1       -0.1659
     10 F         137.1516  137.9972  167.0377 F       1  UNL1       -0.1659
     11 C         139.1708  138.5770  161.2207 C.2     1  UNL1        0.0044
     12 C         140.5183  138.9234  160.6599 C.2     1  UNL1        0.0579
     13 C         140.7759  138.7869  159.1886 C.2     1  UNL1        0.2492
     14 O         139.8229  138.0102  158.3291 O.2     1  UNL1       -0.2699
     15 N         141.9866  139.4271  158.5766 N.am    1  UNL1       -0.2761
     16 C         142.9396  140.2037  159.4360 C.3     1  UNL1        0.0942
     17 C         144.1503  140.8438  158.8241 C.3     1  UNL1        0.0308
     18 C         144.4079  140.7074  157.3527 C.3     1  UNL1        0.0816
     19 C         143.4549  139.9307  156.4932 C.3     1  UNL1        0.0308
     20 C         142.2443  139.2905  157.1052 C.3     1  UNL1        0.0942
     21 C         145.6186  141.3475  156.7407 C.ar    1  UNL1        0.2257
     22 N         146.4229  142.4637  157.3384 N.ar    1  UNL1       -0.1117
     23 N         147.5389  142.7899  156.3907 N.ar    1  UNL1       -0.1117
     24 C         147.4243  141.8753  155.2073 C.ar    1  UNL1        0.2266
     25 C         148.3364  141.8556  154.0166 C.3     1  UNL1        0.0967
     26 O         146.2375  140.9839  155.4237 O.2     1  UNL1       -0.4233
     27 C         137.8965  141.0712  162.2953 C.3     1  UNL1        0.1776
     28 C         141.1881  144.9880  163.6012 C.3     1  UNL1        0.0776
     29 C         139.9987  144.2390  163.0776 C.ar    1  UNL1        0.1838
     30 N         138.7859  144.8467  162.4374 N.ar    1  UNL1       -0.1123
     31 N         137.8509  143.7341  162.0664 N.ar    1  UNL1       -0.0451
     32 N         138.4857  142.4386  162.4773 N.ar    1  UNL1       -0.1467
     33 N         139.8131  142.7507  163.1023 N.ar    1  UNL1       -0.1339
@<TRIPOS>BOND
     1    28    29    1
     2    29    30   ar
     3    30    31   ar
     4    31    32   ar
     5    32    27    1
     6    27     1    1
     7     1     2   ar
     8     2     3   ar
     9     3     7    1
    10     7     8    1
    11     7     9    1
    12     7    10    1
    13     3     4   ar
    14     4     5   ar
    15     5     6   ar
    16     6    11    1
    17    11    12    2
    18    12    13    1
    19    13    14    2
    20    13    15   am
    21    15    16    1
    22    16    17    1
    23    17    18    1
    24    18    21    1
    25    21    22   ar
    26    22    23   ar
    27    23    24   ar
    28    24    25    1
    29    24    26   ar
    30    18    19    1
    31    19    20    1
    32    32    33   ar
    33    33    29   ar
    34     6     1   ar
    35    20    15    1
    36    26    21   ar
@<TRIPOS>MOLECULE
*****
 33 36 0 0 0
SMALL
GASTEIGER

@<TRIPOS>ATOM
      1 C         139.2486  140.4069  166.1166 C.ar    1  UNL1        0.0040
      2 C         139.2666  139.8550  167.5112 C.ar    1  UNL1        0.0016
      3 C         139.7833  140.6931  168.6428 C.ar    1  UNL1        0.0712
      4 C         140.2819  142.0831  168.3798 C.ar    1  UNL1        0.0038
      5 C         140.2639  142.6350  166.9852 C.ar    1  UNL1       -0.0003
      6 C         139.7472  141.7969  165.8536 C.ar    1  UNL1       -0.0019
      7 C         139.8014  140.1412  170.0375 C.3     1  UNL1        0.4186
      8 F         139.8194  139.5893  171.4322 F       1  UNL1       -0.1659
      9 F         138.3734  140.5614  170.2223 F       1  UNL1       -0.1659
     10 F         141.2294  139.7209  169.8528 F       1  UNL1       -0.1659
     11 C         139.7291  142.3489  164.4589 C.2     1  UNL1        0.0044
     12 C         138.4239  142.6977  163.8072 C.2     1  UNL1        0.0579
     13 C         138.4057  143.2496  162.4126 C.2     1  UNL1        0.2492
     14 O         138.2491  144.7250  162.1918 O.2     1  UNL1       -0.2699
     15 N         138.5443  142.3261  161.2387 N.am    1  UNL1       -0.2761
     16 C         138.7009  140.8508  161.4594 C.3     1  UNL1        0.0942
     17 C         138.8394  139.9274  160.2855 C.3     1  UNL1        0.0308
     18 C         138.8213  140.4792  158.8909 C.3     1  UNL1        0.0816
     19 C         138.6646  141.9547  158.6701 C.3     1  UNL1        0.0308
     20 C         138.5261  142.8781  159.8440 C.3     1  UNL1        0.0942
     21 C         138.9598  139.5558  157.7170 C.ar    1  UNL1        0.2257
     22 N         138.1543  139.6099  156.4528 N.ar    1  UNL1       -0.1117
     23 N         138.6248  138.5036  155.5556 N.ar    1  UNL1       -0.1117
     24 C         139.7212  137.7658  156.2654 C.ar    1  UNL1        0.2266
     25 C         140.4776  136.5851  155.7329 C.3     1  UNL1        0.0967
     26 O         139.9282  138.4161  157.6011 O.2     1  UNL1       -0.4233
     27 C         138.7319  139.5688  164.9849 C.3     1  UNL1        0.1776
     28 C         143.1398  138.1594  162.4423 C.3     1  UNL1        0.0776
     29 C         141.7183  138.1968  162.9199 C.ar    1  UNL1        0.1838
     30 N         140.6219  137.2637  162.4989 N.ar    1  UNL1       -0.1123
     31 N         139.3697  137.6641  163.2213 N.ar    1  UNL1       -0.0451
     32 N         139.6922  138.8446  164.0886 N.ar    1  UNL1       -0.1467
     33 N         141.1438  139.1738  163.9024 N.ar    1  UNL1       -0.1339
@<TRIPOS>BOND
     1    28    29    1
     2    29    30   ar
     3    30    31   ar
     4    31    32   ar
     5    32    27    1
     6    27     1    1
     7     1     2   ar
     8     2     3   ar
     9     3     7    1
    10     7     8    1
    11     7     9    1
    12     7    10    1
    13     3     4   ar
    14     4     5   ar
    15     5     6   ar
    16     6    11    1
    17    11    12    2
    18    12    13    1
    19    13    14    2
    20    13    15   am
    21    15    16    1
    22    16    17    1
    23    17    18    1
    24    18    21    1
    25    21    22   ar
    26    22    23   ar
    27    23    24   ar
    28    24    25    1
    29    24    26   ar
    30    18    19    1
    31    19    20    1
    32    32    33   ar
    33    33    29   ar
    34     6     1   ar
    35    20    15    1
    36    26    21   ar
@<TRIPOS>MOLECULE
*****
 33 36 0 0 0
SMALL
GASTEIGER

@<TRIPOS>ATOM
      1 C         140.1836  143.7010  160.3804 C.ar    1  UNL1        0.0040
      2 C         140.2951  144.8804  159.4604 C.ar    1  UNL1        0.0016
      3 C         140.0938  144.7021  157.9847 C.ar    1  UNL1        0.0712
      4 C         139.7811  143.3443  157.4291 C.ar    1  UNL1        0.0038
      5 C         139.6696  142.1649  158.3491 C.ar    1  UNL1       -0.0003
      6 C         139.8708  142.3432  159.8248 C.ar    1  UNL1       -0.0019
      7 C         140.2053  145.8815  157.0646 C.3     1  UNL1        0.4186
      8 F         140.3168  147.0609  156.1445 F       1  UNL1       -0.1659
      9 F         138.9559  145.4476  156.3571 F       1  UNL1       -0.1659
     10 F         141.4547  146.3154  157.7721 F       1  UNL1       -0.1659
     11 C         139.7593  141.1638  160.7449 C.2     1  UNL1        0.0044
     12 C         138.4329  140.8043  161.3460 C.2     1  UNL1        0.0579
     13 C         138.3214  139.6249  162.2661 C.2     1  UNL1        0.2492
     14 O         137.8940  138.2916  161.7279 O.2     1  UNL1       -0.2699
     15 N         138.6372  139.7788  163.7244 N.am    1  UNL1       -0.2761
     16 C         139.0646  141.1121  164.2626 C.3     1  UNL1        0.0942
     17 C         139.3804  141.2660  165.7209 C.3     1  UNL1        0.0308
     18 C         139.2689  140.0866  166.6409 C.3     1  UNL1        0.0816
     19 C         138.8415  138.7532  166.1027 C.3     1  UNL1        0.0308
     20 C         138.5257  138.5993  164.6445 C.3     1  UNL1        0.0942
     21 C         139.5847  140.2405  168.0992 C.ar    1  UNL1        0.2257
     22 N         138.7591  139.7228  169.2396 N.ar    1  UNL1       -0.1117
     23 N         139.4457  140.1014  170.5183 N.ar    1  UNL1       -0.1117
     24 C         140.6956  140.8532  170.1683 C.ar    1  UNL1        0.2266
     25 C         141.6858  141.4196  171.1423 C.3     1  UNL1        0.0967
     26 O         140.7815  140.9391  168.6732 O.2     1  UNL1       -0.4233
     27 C         140.3848  143.8793  161.8562 C.3     1  UNL1        0.1776
     28 C         144.4919  143.6398  165.1661 C.3     1  UNL1        0.0776
     29 C         143.6602  143.8679  163.9387 C.ar    1  UNL1        0.1838
     30 N         144.1551  144.3916  162.6231 N.ar    1  UNL1       -0.1123
     31 N         142.9883  144.4596  161.6829 N.ar    1  UNL1       -0.0451
     32 N         141.7724  143.9779  162.4174 N.ar    1  UNL1       -0.1467
     33 N         142.1877  143.6122  163.8115 N.ar    1  UNL1       -0.1339
@<TRIPOS>BOND
     1    28    29    1
     2    29    30   ar
     3    30    31   ar
     4    31    32   ar
     5    32    27    1
     6    27     1    1
     7     1     2   ar
     8     2     3   ar
     9     3     7    1
    10     7     8    1
    11     7     9    1
    12     7    10    1
    13     3     4   ar
    14     4     5   ar
    15     5     6   ar
    16     6    11    1
    17    11    12    2
    18    12    13    1
    19    13    14    2
    20    13    15   am
    21    15    16    1
    22    16    17    1
    23    17    18    1
    24    18    21    1
    25    21    22   ar
    26    22    23   ar
    27    23    24   ar
    28    24    25    1
    29    24    26   ar
    30    18    19    1
    31    19    20    1
    32    32    33   ar
    33    33    29   ar
    34     6     1   ar
    35    20    15    1
    36    26    21   ar
@<TRIPOS>MOLECULE
*****
 33 36 0 0 0
SMALL
GASTEIGER

@<TRIPOS>ATOM
      1 C         140.8789  141.9791  165.9799 C.ar    1  UNL1        0.0040
      2 C         140.1516  142.2964  167.2528 C.ar    1  UNL1        0.0016
      3 C         140.9241  142.5965  168.5031 C.ar    1  UNL1        0.0712
      4 C         142.4238  142.5792  168.4804 C.ar    1  UNL1        0.0038
      5 C         143.1511  142.2620  167.2075 C.ar    1  UNL1       -0.0003
      6 C         142.3786  141.9619  165.9572 C.ar    1  UNL1       -0.0019
      7 C         140.1968  142.9138  169.7761 C.3     1  UNL1        0.4186
      8 F         139.4696  143.2311  171.0490 F       1  UNL1       -0.1659
      9 F         140.9969  144.1744  169.9189 F       1  UNL1       -0.1659
     10 F         139.3967  141.6531  169.6333 F       1  UNL1       -0.1659
     11 C         143.1059  141.6446  164.6842 C.2     1  UNL1        0.0044
     12 C         143.9416  142.6957  164.0159 C.2     1  UNL1        0.0579
     13 C         144.6689  142.3785  162.7430 C.2     1  UNL1        0.2492
     14 O         145.9979  141.6847  162.7914 O.2     1  UNL1       -0.2699
     15 N         144.0671  142.7551  161.4216 N.am    1  UNL1       -0.2761
     16 C         142.7381  143.4488  161.3731 C.3     1  UNL1        0.0942
     17 C         142.1364  143.8254  160.0517 C.3     1  UNL1        0.0308
     18 C         142.8636  143.5082  158.7788 C.3     1  UNL1        0.0816
     19 C         144.1927  142.8143  158.8272 C.3     1  UNL1        0.0308
     20 C         144.7944  142.4378  160.1486 C.3     1  UNL1        0.0942
     21 C         142.2619  143.8847  157.4574 C.ar    1  UNL1        0.2257
     22 N         141.9410  142.9435  156.3344 N.ar    1  UNL1       -0.1117
     23 N         141.3561  143.7456  155.2099 N.ar    1  UNL1       -0.1117
     24 C         141.3156  145.1827  155.6379 C.ar    1  UNL1        0.2266
     25 C         140.8049  146.3321  154.8205 C.3     1  UNL1        0.0967
     26 O         141.8753  145.2686  157.0269 O.2     1  UNL1       -0.4233
     27 C         140.1064  141.6790  164.7295 C.3     1  UNL1        0.1776
     28 C         139.7516  146.1767  161.9863 C.3     1  UNL1        0.0776
     29 C         139.4031  144.8690  162.6331 C.ar    1  UNL1        0.1838
     30 N         138.0669  144.1893  162.5837 N.ar    1  UNL1       -0.1123
     31 N         138.1677  142.9116  163.3630 N.ar    1  UNL1       -0.0451
     32 N         139.5663  142.8016  163.8941 N.ar    1  UNL1       -0.1467
     33 N         140.3298  144.0114  163.4430 N.ar    1  UNL1       -0.1339
@<TRIPOS>BOND
     1    28    29    1
     2    29    30   ar
     3    30    31   ar
     4    31    32   ar
     5    32    27    1
     6    27     1    1
     7     1     2   ar
     8     2     3   ar
     9     3     7    1
    10     7     8    1
    11     7     9    1
    12     7    10    1
    13     3     4   ar
    14     4     5   ar
    15     5     6   ar
    16     6    11    1
    17    11    12    2
    18    12    13    1
    19    13    14    2
    20    13    15   am
    21    15    16    1
    22    16    17    1
    23    17    18    1
    24    18    21    1
    25    21    22   ar
    26    22    23   ar
    27    23    24   ar
    28    24    25    1
    29    24    26   ar
    30    18    19    1
    31    19    20    1
    32    32    33   ar
    33    33    29   ar
    34     6     1   ar
    35    20    15    1
    36    26    21   ar
