@<TRIPOS>MOLECULE
*****
 26 29 0 0 0
SMALL
GASTEIGER

@<TRIPOS>ATOM
      1 C         141.4147  145.0196  160.6609 C.3     1  UNL1        0.0905
      2 N         141.0084  144.9626  162.1037 N.3     1  UNL1       -0.2532
      3 C         142.0558  144.9241  163.1767 C.3     1  UNL1        0.1958
      4 C         142.6993  143.6217  163.5504 C.2     1  UNL1        0.3612
      5 N         141.9525  142.6306  164.3929 N.2     1  UNL1       -0.0428
      6 C         142.5960  141.3281  164.7666 C.2     1  UNL1        0.1815
      7 C         141.8491  140.3371  165.6091 C.3     1  UNL1        0.1000
      8 C         142.4927  139.0347  165.9827 C.2     1  UNL1       -0.0174
      9 C         143.8831  138.7234  165.5138 C.2     1  UNL1       -0.0038
     10 C         144.6299  139.7145  164.6713 C.2     1  UNL1        0.0101
     11 C         143.9864  141.0168  164.2977 C.2     1  UNL1        0.1209
     12 C         144.7333  142.0080  163.4551 C.2     1  UNL1        0.3785
     13 O         146.1237  141.6967  162.9862 O.2     1  UNL1       -0.2376
     14 N         144.0897  143.3104  163.0815 N.am    1  UNL1        0.0335
     15 C         139.5548  144.9440  162.4734 C.3     1  UNL1        0.1608
     16 C         138.8546  143.6366  162.6973 C.ar    1  UNL1        0.2426
     17 N         137.5211  143.2429  162.1344 N.ar    1  UNL1       -0.1099
     18 N         137.2072  141.8563  162.6127 N.ar    1  UNL1       -0.1072
     19 C         138.3467  141.3929  163.4712 C.ar    1  UNL1        0.2496
     20 O         139.3648  142.4932  163.5234 O.2     1  UNL1       -0.4181
     21 C         138.4499  140.0629  164.1569 C.ar    1  UNL1        0.0551
     22 C         138.9065  138.8572  163.3903 C.ar    1  UNL1        0.0047
     23 C         139.0097  137.5272  164.0760 C.ar    1  UNL1        0.0002
     24 C         138.6563  137.4027  165.5285 C.ar    1  UNL1        0.0000
     25 C         138.1996  138.6084  166.2951 C.ar    1  UNL1        0.0002
     26 C         138.0964  139.9384  165.6094 C.ar    1  UNL1        0.0047
@<TRIPOS>BOND
     1     1     2    1
     2     2     3    1
     3     3     4    1
     4     4     5    1
     5     5     6    2
     6     6     7    1
     7     7     8    1
     8     8     9    2
     9     9    10    1
    10    10    11    2
    11    11    12    1
    12    12    13    2
    13    12    14    1
    14     2    15    1
    15    15    16    1
    16    16    17   ar
    17    17    18   ar
    18    18    19   ar
    19    19    21    1
    20    21    22   ar
    21    22    23   ar
    22    23    24   ar
    23    24    25   ar
    24    25    26   ar
    25    19    20   ar
    26    14     4    2
    27    20    16   ar
    28    11     6    1
    29    26    21   ar
@<TRIPOS>MOLECULE
*****
 26 29 0 0 0
SMALL
GASTEIGER

@<TRIPOS>ATOM
      1 C         142.7065  137.7170  161.3320 C.3     1  UNL1        0.0905
      2 N         141.4416  138.0699  162.0569 N.3     1  UNL1       -0.2532
      3 C         140.5577  139.1632  161.5340 C.3     1  UNL1        0.1958
      4 C         140.4851  140.4776  162.2532 C.2     1  UNL1        0.3612
      5 N         139.1895  140.9313  162.8576 N.2     1  UNL1       -0.0428
      6 C         139.1169  142.2456  163.5768 C.2     1  UNL1        0.1815
      7 C         137.8212  142.6993  164.1813 C.3     1  UNL1        0.1000
      8 C         137.7487  144.0137  164.9004 C.2     1  UNL1       -0.0174
      9 C         138.9719  144.8743  165.0152 C.2     1  UNL1       -0.0038
     10 C         140.2676  144.4206  164.4108 C.2     1  UNL1        0.0101
     11 C         140.3401  143.1063  163.6916 C.2     1  UNL1        0.1209
     12 C         141.6358  142.6525  163.0871 C.2     1  UNL1        0.3785
     13 O         142.8590  143.5131  163.2019 O.2     1  UNL1       -0.2376
     14 N         141.7083  141.3382  162.3680 N.am    1  UNL1        0.0335
     15 C         141.0606  137.3296  163.3045 C.3     1  UNL1        0.1608
     16 C         140.2942  138.0294  164.3875 C.ar    1  UNL1        0.2426
     17 N         138.8346  137.8569  164.6871 N.ar    1  UNL1       -0.1099
     18 N         138.4911  138.7455  165.8457 N.ar    1  UNL1       -0.1072
     19 C         139.7384  139.4672  166.2622 C.ar    1  UNL1        0.2496
     20 O         140.8528  139.0246  165.3609 O.2     1  UNL1       -0.4181
     21 C         139.8515  140.4576  167.3830 C.ar    1  UNL1        0.0551
     22 C         139.4095  140.0794  168.7655 C.ar    1  UNL1        0.0047
     23 C         139.5225  141.0697  169.8864 C.ar    1  UNL1        0.0002
     24 C         140.0777  142.4384  169.6247 C.ar    1  UNL1        0.0000
     25 C         140.5198  142.8167  168.2422 C.ar    1  UNL1        0.0002
     26 C         140.4067  141.8263  167.1213 C.ar    1  UNL1        0.0047
@<TRIPOS>BOND
     1     1     2    1
     2     2     3    1
     3     3     4    1
     4     4     5    1
     5     5     6    2
     6     6     7    1
     7     7     8    1
     8     8     9    2
     9     9    10    1
    10    10    11    2
    11    11    12    1
    12    12    13    2
    13    12    14    1
    14     2    15    1
    15    15    16    1
    16    16    17   ar
    17    17    18   ar
    18    18    19   ar
    19    19    21    1
    20    21    22   ar
    21    22    23   ar
    22    23    24   ar
    23    24    25   ar
    24    25    26   ar
    25    19    20   ar
    26    14     4    2
    27    20    16   ar
    28    11     6    1
    29    26    21   ar
@<TRIPOS>MOLECULE
*****
 26 29 0 0 0
SMALL
GASTEIGER

@<TRIPOS>ATOM
      1 C         142.2235  143.6754  158.9226 C.3     1  UNL1        0.0905
      2 N         141.0753  143.9287  159.8539 N.3     1  UNL1       -0.2532
      3 C         141.2422  144.8670  161.0123 C.3     1  UNL1        0.1958
      4 C         140.9988  144.3825  162.4110 C.2     1  UNL1        0.3612
      5 N         141.8226  143.2606  162.9701 N.2     1  UNL1       -0.0428
      6 C         141.5793  142.7762  164.3688 C.2     1  UNL1        0.1815
      7 C         142.4031  141.6543  164.9279 C.3     1  UNL1        0.1000
      8 C         142.1597  141.1700  166.3265 C.2     1  UNL1       -0.0174
      9 C         141.0925  141.8075  167.1659 C.2     1  UNL1       -0.0038
     10 C         140.2687  142.9294  166.6068 C.2     1  UNL1        0.0101
     11 C         140.5121  143.4137  165.2082 C.2     1  UNL1        0.1209
     12 C         139.6882  144.5357  164.6490 C.2     1  UNL1        0.3785
     13 O         138.6210  145.1732  165.4884 O.2     1  UNL1       -0.2376
     14 N         139.9316  145.0200  163.2504 N.am    1  UNL1        0.0335
     15 C         139.7603  143.2439  159.6269 C.3     1  UNL1        0.1608
     16 C         139.0346  142.6130  160.7781 C.ar    1  UNL1        0.2426
     17 N         137.7189  143.0606  161.3428 N.ar    1  UNL1       -0.1099
     18 N         137.3683  142.1480  162.4805 N.ar    1  UNL1       -0.1072
     19 C         138.4673  141.1365  162.6190 C.ar    1  UNL1        0.2496
     20 O         139.4971  141.4239  161.5669 O.2     1  UNL1       -0.4181
     21 C         138.5261  140.0316  163.6318 C.ar    1  UNL1        0.0551
     22 C         138.1669  140.3054  165.0621 C.ar    1  UNL1        0.0047
     23 C         138.2257  139.2005  166.0749 C.ar    1  UNL1        0.0002
     24 C         138.6438  137.8218  165.6574 C.ar    1  UNL1        0.0000
     25 C         139.0031  137.5481  164.2270 C.ar    1  UNL1        0.0002
     26 C         138.9443  138.6529  163.2143 C.ar    1  UNL1        0.0047
@<TRIPOS>BOND
     1     1     2    1
     2     2     3    1
     3     3     4    1
     4     4     5    1
     5     5     6    2
     6     6     7    1
     7     7     8    1
     8     8     9    2
     9     9    10    1
    10    10    11    2
    11    11    12    1
    12    12    13    2
    13    12    14    1
    14     2    15    1
    15    15    16    1
    16    16    17   ar
    17    17    18   ar
    18    18    19   ar
    19    19    21    1
    20    21    22   ar
    21    22    23   ar
    22    23    24   ar
    23    24    25   ar
    24    25    26   ar
    25    19    20   ar
    26    14     4    2
    27    20    16   ar
    28    11     6    1
    29    26    21   ar
@<TRIPOS>MOLECULE
*****
 26 29 0 0 0
SMALL
GASTEIGER

@<TRIPOS>ATOM
      1 C         144.8847  142.1959  160.6947 C.3     1  UNL1        0.0905
      2 N         144.9116  142.6300  162.1302 N.3     1  UNL1       -0.2532
      3 C         144.3464  143.9633  162.5212 C.3     1  UNL1        0.1958
      4 C         142.8609  144.1504  162.6133 C.2     1  UNL1        0.3612
      5 N         142.1426  143.8318  163.8910 N.2     1  UNL1       -0.0428
      6 C         140.6572  144.0189  163.9831 C.2     1  UNL1        0.1815
      7 C         139.9389  143.7003  165.2608 C.3     1  UNL1        0.1000
      8 C         138.4535  143.8874  165.3528 C.2     1  UNL1       -0.0174
      9 C         137.6863  144.3931  164.1672 C.2     1  UNL1       -0.0038
     10 C         138.4046  144.7117  162.8895 C.2     1  UNL1        0.0101
     11 C         139.8900  144.5246  162.7975 C.2     1  UNL1        0.1209
     12 C         140.6084  144.8432  161.5197 C.2     1  UNL1        0.3785
     13 O         139.8412  145.3489  160.3341 O.2     1  UNL1       -0.2376
     14 N         142.0938  144.6561  161.4277 N.am    1  UNL1        0.0335
     15 C         145.5036  141.7309  163.1747 C.3     1  UNL1        0.1608
     16 C         144.6397  140.7244  163.8751 C.ar    1  UNL1        0.2426
     17 N         145.1129  139.4628  164.5341 N.ar    1  UNL1       -0.1099
     18 N         143.9165  138.7615  165.1058 N.ar    1  UNL1       -0.1072
     19 C         142.7038  139.5898  164.8001 C.ar    1  UNL1        0.2496
     20 O         143.1507  140.8029  164.0395 O.2     1  UNL1       -0.4181
     21 C         141.2920  139.2624  165.1871 C.ar    1  UNL1        0.0551
     22 C         140.6152  138.0569  164.6052 C.ar    1  UNL1        0.0047
     23 C         139.2035  137.7295  164.9922 C.ar    1  UNL1        0.0002
     24 C         138.4685  138.6076  165.9611 C.ar    1  UNL1        0.0000
     25 C         139.1453  139.8131  166.5430 C.ar    1  UNL1        0.0002
     26 C         140.5571  140.1405  166.1560 C.ar    1  UNL1        0.0047
@<TRIPOS>BOND
     1     1     2    1
     2     2     3    1
     3     3     4    1
     4     4     5    1
     5     5     6    2
     6     6     7    1
     7     7     8    1
     8     8     9    2
     9     9    10    1
    10    10    11    2
    11    11    12    1
    12    12    13    2
    13    12    14    1
    14     2    15    1
    15    15    16    1
    16    16    17   ar
    17    17    18   ar
    18    18    19   ar
    19    19    21    1
    20    21    22   ar
    21    22    23   ar
    22    23    24   ar
    23    24    25   ar
    24    25    26   ar
    25    19    20   ar
    26    14     4    2
    27    20    16   ar
    28    11     6    1
    29    26    21   ar
@<TRIPOS>MOLECULE
*****
 26 29 0 0 0
SMALL
GASTEIGER

@<TRIPOS>ATOM
      1 C         139.7545  138.0779  162.6809 C.3     1  UNL1        0.0905
      2 N         138.8060  138.6766  163.6769 N.3     1  UNL1       -0.2532
      3 C         138.0941  139.9578  163.3583 C.3     1  UNL1        0.1958
      4 C         138.8527  141.2517  163.3358 C.2     1  UNL1        0.3612
      5 N         140.2673  141.3006  163.8322 N.2     1  UNL1       -0.0428
      6 C         141.0258  142.5945  163.8097 C.2     1  UNL1        0.1815
      7 C         142.4404  142.6433  164.3061 C.3     1  UNL1        0.1000
      8 C         143.1989  143.9372  164.2836 C.2     1  UNL1       -0.0174
      9 C         142.5428  145.1822  163.7645 C.2     1  UNL1       -0.0038
     10 C         141.1282  145.1334  163.2681 C.2     1  UNL1        0.0101
     11 C         140.3697  143.8395  163.2907 C.2     1  UNL1        0.1209
     12 C         138.9551  143.7907  162.7942 C.2     1  UNL1        0.3785
     13 O         138.2990  145.0357  162.2751 O.2     1  UNL1       -0.2376
     14 N         138.1966  142.4968  162.8167 N.am    1  UNL1        0.0335
     15 C         138.5695  137.9939  164.9915 C.3     1  UNL1        0.1608
     16 C         138.8558  138.7168  166.2742 C.ar    1  UNL1        0.2426
     17 N         137.9883  138.7185  167.4979 N.ar    1  UNL1       -0.1099
     18 N         138.6562  139.5677  168.5384 N.ar    1  UNL1       -0.1072
     19 C         139.9366  140.0909  167.9578 C.ar    1  UNL1        0.2496
     20 O         140.0598  139.5651  166.5584 O.2     1  UNL1       -0.4181
     21 C         140.9207  140.9833  168.6543 C.ar    1  UNL1        0.0551
     22 C         140.6317  141.4819  170.0391 C.ar    1  UNL1        0.0047
     23 C         141.6159  142.3742  170.7355 C.ar    1  UNL1        0.0002
     24 C         142.8891  142.7680  170.0472 C.ar    1  UNL1        0.0000
     25 C         143.1781  142.2695  168.6623 C.ar    1  UNL1        0.0002
     26 C         142.1939  141.3771  167.9659 C.ar    1  UNL1        0.0047
@<TRIPOS>BOND
     1     1     2    1
     2     2     3    1
     3     3     4    1
     4     4     5    1
     5     5     6    2
     6     6     7    1
     7     7     8    1
     8     8     9    2
     9     9    10    1
    10    10    11    2
    11    11    12    1
    12    12    13    2
    13    12    14    1
    14     2    15    1
    15    15    16    1
    16    16    17   ar
    17    17    18   ar
    18    18    19   ar
    19    19    21    1
    20    21    22   ar
    21    22    23   ar
    22    23    24   ar
    23    24    25   ar
    24    25    26   ar
    25    19    20   ar
    26    14     4    2
    27    20    16   ar
    28    11     6    1
    29    26    21   ar
@<TRIPOS>MOLECULE
*****
 26 29 0 0 0
SMALL
GASTEIGER

@<TRIPOS>ATOM
      1 C         141.9074  144.4421  158.8844 C.3     1  UNL1        0.0905
      2 N         140.8377  144.3323  159.9302 N.3     1  UNL1       -0.2532
      3 C         140.9582  145.1050  161.2102 C.3     1  UNL1        0.1958
      4 C         141.4537  144.4257  162.4525 C.2     1  UNL1        0.3612
      5 N         140.5193  144.1904  163.6021 N.2     1  UNL1       -0.0428
      6 C         141.0148  143.5111  164.8444 C.2     1  UNL1        0.1815
      7 C         140.0804  143.2758  165.9940 C.3     1  UNL1        0.1000
      8 C         140.5759  142.5966  167.2362 C.2     1  UNL1       -0.0174
      9 C         142.0057  142.1527  167.3288 C.2     1  UNL1       -0.0038
     10 C         142.9400  142.3880  166.1792 C.2     1  UNL1        0.0101
     11 C         142.4446  143.0672  164.9370 C.2     1  UNL1        0.1209
     12 C         143.3789  143.3026  163.7874 C.2     1  UNL1        0.3785
     13 O         144.8088  142.8587  163.8800 O.2     1  UNL1       -0.2376
     14 N         142.8835  143.9818  162.5452 N.am    1  UNL1        0.0335
     15 C         139.6476  143.4499  159.6960 C.3     1  UNL1        0.1608
     16 C         138.9642  142.7888  160.8561 C.ar    1  UNL1        0.2426
     17 N         137.6953  143.2485  161.5106 N.ar    1  UNL1       -0.1099
     18 N         137.3766  142.2957  162.6244 N.ar    1  UNL1       -0.1072
     19 C         138.4487  141.2470  162.6584 C.ar    1  UNL1        0.2496
     20 O         139.4299  141.5518  161.5655 O.2     1  UNL1       -0.4181
     21 C         138.5260  140.0958  163.6169 C.ar    1  UNL1        0.0551
     22 C         138.1495  140.2912  165.0556 C.ar    1  UNL1        0.0047
     23 C         138.2268  139.1400  166.0141 C.ar    1  UNL1        0.0002
     24 C         138.6806  137.7934  165.5338 C.ar    1  UNL1        0.0000
     25 C         139.0571  137.5980  164.0951 C.ar    1  UNL1        0.0002
     26 C         138.9798  138.7492  163.1366 C.ar    1  UNL1        0.0047
@<TRIPOS>BOND
     1     1     2    1
     2     2     3    1
     3     3     4    1
     4     4     5    1
     5     5     6    2
     6     6     7    1
     7     7     8    1
     8     8     9    2
     9     9    10    1
    10    10    11    2
    11    11    12    1
    12    12    13    2
    13    12    14    1
    14     2    15    1
    15    15    16    1
    16    16    17   ar
    17    17    18   ar
    18    18    19   ar
    19    19    21    1
    20    21    22   ar
    21    22    23   ar
    22    23    24   ar
    23    24    25   ar
    24    25    26   ar
    25    19    20   ar
    26    14     4    2
    27    20    16   ar
    28    11     6    1
    29    26    21   ar
@<TRIPOS>MOLECULE
*****
 26 29 0 0 0
SMALL
GASTEIGER

@<TRIPOS>ATOM
      1 C         144.0673  138.8755  161.3519 C.3     1  UNL1        0.0905
      2 N         144.1937  140.1816  162.0787 N.3     1  UNL1       -0.2532
      3 C         143.6091  141.4293  161.4861 C.3     1  UNL1        0.1958
      4 C         142.6170  142.2378  162.2686 C.2     1  UNL1        0.3612
      5 N         141.2686  141.6644  162.5894 N.2     1  UNL1       -0.0428
      6 C         140.2766  142.4729  163.3719 C.2     1  UNL1        0.1815
      7 C         138.9282  141.8995  163.6926 C.3     1  UNL1        0.1000
      8 C         137.9363  142.7080  164.4751 C.2     1  UNL1       -0.0174
      9 C         138.2927  144.0899  164.9369 C.2     1  UNL1       -0.0038
     10 C         139.6412  144.6633  164.6162 C.2     1  UNL1        0.0101
     11 C         140.6331  143.8548  163.8337 C.2     1  UNL1        0.1209
     12 C         141.9816  144.4282  163.5130 C.2     1  UNL1        0.3785
     13 O         142.3381  145.8101  163.9748 O.2     1  UNL1       -0.2376
     14 N         142.9735  143.6197  162.7305 N.am    1  UNL1        0.0335
     15 C         144.9049  140.2398  163.3982 C.3     1  UNL1        0.1608
     16 C         144.1185  140.2219  164.6754 C.ar    1  UNL1        0.2426
     17 N         143.6595  138.9979  165.4110 N.ar    1  UNL1       -0.1099
     18 N         142.9104  139.4443  166.6315 N.ar    1  UNL1       -0.1072
     19 C         142.9065  140.9442  166.6502 C.ar    1  UNL1        0.2496
     20 O         143.6532  141.4247  165.4413 O.2     1  UNL1       -0.4181
     21 C         142.2681  141.8112  167.6945 C.ar    1  UNL1        0.0551
     22 C         140.8845  142.3491  167.4794 C.ar    1  UNL1        0.0047
     23 C         140.2461  143.2161  168.5237 C.ar    1  UNL1        0.0002
     24 C         140.9912  143.5453  169.7832 C.ar    1  UNL1        0.0000
     25 C         142.3748  143.0075  169.9984 C.ar    1  UNL1        0.0002
     26 C         143.0132  142.1404  168.9541 C.ar    1  UNL1        0.0047
@<TRIPOS>BOND
     1     1     2    1
     2     2     3    1
     3     3     4    1
     4     4     5    1
     5     5     6    2
     6     6     7    1
     7     7     8    1
     8     8     9    2
     9     9    10    1
    10    10    11    2
    11    11    12    1
    12    12    13    2
    13    12    14    1
    14     2    15    1
    15    15    16    1
    16    16    17   ar
    17    17    18   ar
    18    18    19   ar
    19    19    21    1
    20    21    22   ar
    21    22    23   ar
    22    23    24   ar
    23    24    25   ar
    24    25    26   ar
    25    19    20   ar
    26    14     4    2
    27    20    16   ar
    28    11     6    1
    29    26    21   ar
@<TRIPOS>MOLECULE
*****
 26 29 0 0 0
SMALL
GASTEIGER

@<TRIPOS>ATOM
      1 C         144.6629  142.6002  160.6138 C.3     1  UNL1        0.0905
      2 N         144.6469  141.8964  161.9382 N.3     1  UNL1       -0.2532
      3 C         144.8113  142.6806  163.2063 C.3     1  UNL1        0.1958
      4 C         143.6757  142.7758  164.1818 C.2     1  UNL1        0.3612
      5 N         143.8878  142.4005  165.6185 N.2     1  UNL1       -0.0428
      6 C         142.7522  142.4957  166.5940 C.2     1  UNL1        0.1815
      7 C         142.9643  142.1205  168.0307 C.3     1  UNL1        0.1000
      8 C         141.8288  142.2157  169.0062 C.2     1  UNL1       -0.0174
      9 C         140.4812  142.6861  168.5449 C.2     1  UNL1       -0.0038
     10 C         140.2692  143.0614  167.1082 C.2     1  UNL1        0.0101
     11 C         141.4047  142.9662  166.1328 C.2     1  UNL1        0.1209
     12 C         141.1927  143.3414  164.6960 C.2     1  UNL1        0.3785
     13 O         139.8451  143.8119  164.2347 O.2     1  UNL1       -0.2376
     14 N         142.3282  143.2462  163.7205 N.am    1  UNL1        0.0335
     15 C         144.4666  140.4083  161.9947 C.3     1  UNL1        0.1608
     16 C         143.7660  139.7815  163.1635 C.ar    1  UNL1        0.2426
     17 N         144.4245  139.0697  164.3079 N.ar    1  UNL1       -0.1099
     18 N         143.3494  138.6047  165.2449 N.ar    1  UNL1       -0.1072
     19 C         142.0264  139.0292  164.6796 C.ar    1  UNL1        0.2496
     20 O         142.2839  139.7565  163.3932 O.2     1  UNL1       -0.4181
     21 C         140.6820  138.7716  165.2930 C.ar    1  UNL1        0.0551
     22 C         140.1916  139.6370  166.4156 C.ar    1  UNL1        0.0047
     23 C         138.8472  139.3794  167.0290 C.ar    1  UNL1        0.0002
     24 C         137.9932  138.2564  166.5196 C.ar    1  UNL1        0.0000
     25 C         138.4836  137.3910  165.3970 C.ar    1  UNL1        0.0002
     26 C         139.8280  137.6486  164.7836 C.ar    1  UNL1        0.0047
@<TRIPOS>BOND
     1     1     2    1
     2     2     3    1
     3     3     4    1
     4     4     5    1
     5     5     6    2
     6     6     7    1
     7     7     8    1
     8     8     9    2
     9     9    10    1
    10    10    11    2
    11    11    12    1
    12    12    13    2
    13    12    14    1
    14     2    15    1
    15    15    16    1
    16    16    17   ar
    17    17    18   ar
    18    18    19   ar
    19    19    21    1
    20    21    22   ar
    21    22    23   ar
    22    23    24   ar
    23    24    25   ar
    24    25    26   ar
    25    19    20   ar
    26    14     4    2
    27    20    16   ar
    28    11     6    1
    29    26    21   ar
@<TRIPOS>MOLECULE
*****
 26 29 0 0 0
SMALL
GASTEIGER

@<TRIPOS>ATOM
      1 C         137.8739  144.3027  163.1256 C.3     1  UNL1        0.0905
      2 N         138.2488  142.8592  162.9649 N.3     1  UNL1       -0.2532
      3 C         139.2897  142.4621  161.9606 C.3     1  UNL1        0.1958
      4 C         140.7391  142.4508  162.3471 C.2     1  UNL1        0.3612
      5 N         141.3832  141.1760  162.8054 N.2     1  UNL1       -0.0428
      6 C         142.8326  141.1647  163.1919 C.2     1  UNL1        0.1815
      7 C         143.4766  139.8900  163.6502 C.3     1  UNL1        0.1000
      8 C         144.9259  139.8787  164.0366 C.2     1  UNL1       -0.0174
      9 C         145.7311  141.1422  163.9648 C.2     1  UNL1       -0.0038
     10 C         145.0870  142.4170  163.5065 C.2     1  UNL1        0.0101
     11 C         143.6378  142.4282  163.1200 C.2     1  UNL1        0.1209
     12 C         142.9936  143.7031  162.6617 C.2     1  UNL1        0.3785
     13 O         143.7988  144.9666  162.5898 O.2     1  UNL1       -0.2376
     14 N         141.5443  143.7143  162.2752 N.am    1  UNL1        0.0335
     15 C         137.5828  141.8129  163.8086 C.3     1  UNL1        0.1608
     16 C         138.3407  141.1534  164.9224 C.ar    1  UNL1        0.2426
     17 N         138.0940  139.7756  165.4617 N.ar    1  UNL1       -0.1099
     18 N         139.0791  139.5265  166.5651 N.ar    1  UNL1       -0.1072
     19 C         139.9347  140.7504  166.7077 C.ar    1  UNL1        0.2496
     20 O         139.4783  141.7558  165.6925 O.2     1  UNL1       -0.4181
     21 C         141.0506  140.9361  167.6926 C.ar    1  UNL1        0.0551
     22 C         141.8428  142.2098  167.6971 C.ar    1  UNL1        0.0047
     23 C         142.9588  142.3955  168.6820 C.ar    1  UNL1        0.0002
     24 C         143.2826  141.3075  169.6625 C.ar    1  UNL1        0.0000
     25 C         142.4904  140.0339  169.6581 C.ar    1  UNL1        0.0002
     26 C         141.3744  139.8481  168.6732 C.ar    1  UNL1        0.0047
@<TRIPOS>BOND
     1     1     2    1
     2     2     3    1
     3     3     4    1
     4     4     5    1
     5     5     6    2
     6     6     7    1
     7     7     8    1
     8     8     9    2
     9     9    10    1
    10    10    11    2
    11    11    12    1
    12    12    13    2
    13    12    14    1
    14     2    15    1
    15    15    16    1
    16    16    17   ar
    17    17    18   ar
    18    18    19   ar
    19    19    21    1
    20    21    22   ar
    21    22    23   ar
    22    23    24   ar
    23    24    25   ar
    24    25    26   ar
    25    19    20   ar
    26    14     4    2
    27    20    16   ar
    28    11     6    1
    29    26    21   ar
