@<TRIPOS>MOLECULE
*****
 46 49 0 0 0
SMALL
GASTEIGER

@<TRIPOS>ATOM
      1 C         143.9532  143.0963  161.6358 C.2     1  UNL1        0.2490
      2 O         144.7593  144.2390  162.1782 O.2     1  UNL1       -0.2699
      3 N         143.4902  142.0032  162.5527 N.am    1  UNL1       -0.2743
      4 C         142.6841  140.8604  162.0102 C.3     1  UNL1        0.1152
      5 C         142.2211  139.7673  162.9272 C.3     1  UNL1        0.1149
      6 N         142.5642  139.8170  164.3866 N.am    1  UNL1       -0.2761
      7 C         142.1011  138.7239  165.3035 C.2     1  UNL1        0.2257
      8 O         142.4441  138.7736  166.7629 O.2     1  UNL1       -0.2749
      9 C         143.3702  140.9598  164.9290 C.3     1  UNL1        0.1132
     10 C         143.8333  142.0529  164.0121 C.3     1  UNL1        0.0955
     11 C         144.6393  143.1957  164.5546 C.3     1  UNL1        0.0233
     12 C         142.9242  142.9471  157.2576 C.ar    1  UNL1        0.1306
     13 C         142.1635  143.8567  158.1762 C.ar    1  UNL1        0.0110
     14 C         142.5065  143.9064  159.6356 C.ar    1  UNL1        0.0032
     15 C         143.6102  143.0465  160.1764 C.ar    1  UNL1        0.0532
     16 C         144.3709  142.1369  159.2577 C.ar    1  UNL1        0.0032
     17 C         144.0278  142.0872  157.7983 C.ar    1  UNL1        0.0110
     18 C         141.0598  144.7167  157.6355 C.3     1  UNL1        0.0218
     19 C         142.0199  145.8605  157.4947 C.3     1  UNL1        0.0045
     20 C         140.0997  143.5728  157.7763 C.3     1  UNL1        0.0045
     21 C         139.9561  145.5765  157.0948 C.3     1  UNL1        0.0045
     22 C         144.7885  141.1775  156.8796 C.3     1  UNL1        0.0218
     23 C         145.8963  142.1856  156.7989 C.3     1  UNL1        0.0045
     24 C         143.6807  140.1695  156.9604 C.3     1  UNL1        0.0045
     25 C         145.5493  140.2679  155.9610 C.3     1  UNL1        0.0045
     26 C         143.2995  143.7878  154.8281 C.3     1  UNL1        0.2524
     27 O         142.5811  142.8974  155.7981 O.3     1  UNL1       -0.4721
     28 C         141.2951  137.5811  164.7611 C.3     1  UNL1        0.0853
     29 C         139.7982  137.6086  164.8537 C.3     1  UNL1        0.0096
     30 C         139.0278  138.7278  164.2181 C.3     1  UNL1        0.0012
     31 C         138.3018  139.7207  165.0766 C.3     1  UNL1        0.0087
     32 C         138.9938  140.9749  165.5217 C.3     1  UNL1        0.0446
     33 C         139.7026  141.0118  166.8432 C.ar    1  UNL1       -0.0183
     34 C         140.6872  142.1049  167.1359 C.ar    1  UNL1       -0.0017
     35 C         141.3959  142.1418  168.4574 C.ar    1  UNL1        0.0293
     36 C         141.1199  141.0857  169.4863 C.ar    1  UNL1        0.1401
     37 F         141.8286  141.1227  170.8078 F       1  UNL1       -0.2042
     38 C         140.1352  139.9927  169.1935 C.ar    1  UNL1        0.0293
     39 C         139.4266  139.9557  167.8721 C.ar    1  UNL1       -0.0017
     40 C         138.9772  142.1921  164.6453 C.ar    1  UNL1       -0.0183
     41 C         137.7283  143.0146  164.5278 C.ar    1  UNL1       -0.0017
     42 C         137.7117  144.2319  163.6514 C.ar    1  UNL1        0.0293
     43 C         138.9438  144.6266  162.8925 C.ar    1  UNL1        0.1401
     44 F         138.9272  145.8438  162.0161 F       1  UNL1       -0.2042
     45 C         140.1928  143.8041  163.0100 C.ar    1  UNL1        0.0293
     46 C         140.2094  142.5868  163.8864 C.ar    1  UNL1       -0.0017
@<TRIPOS>BOND
     1    26    27    1
     2    27    12    1
     3    12    13   ar
     4    13    18    1
     5    18    19    1
     6    18    20    1
     7    18    21    1
     8    13    14   ar
     9    14    15   ar
    10    15     1    1
    11     1     2    2
    12     1     3   am
    13     3     4    1
    14     4     5    1
    15     5     6    1
    16     6     7   am
    17     7     8    2
    18     7    28    1
    19    28    29    1
    20    29    30    1
    21    30    31    1
    22    31    32    1
    23    32    33    1
    24    33    34   ar
    25    34    35   ar
    26    35    36   ar
    27    36    37    1
    28    36    38   ar
    29    38    39   ar
    30    32    40    1
    31    40    41   ar
    32    41    42   ar
    33    42    43   ar
    34    43    44    1
    35    43    45   ar
    36    45    46   ar
    37     6     9    1
    38     9    10    1
    39    10    11    1
    40    15    16   ar
    41    16    17   ar
    42    17    22    1
    43    22    23    1
    44    22    24    1
    45    22    25    1
    46    17    12   ar
    47    10     3    1
    48    39    33   ar
    49    46    40   ar
@<TRIPOS>MOLECULE
*****
 46 49 0 0 0
SMALL
GASTEIGER

@<TRIPOS>ATOM
      1 C         143.9508  143.0723  161.5912 C.2     1  UNL1        0.2490
      2 O         144.7711  144.2048  162.1338 O.2     1  UNL1       -0.2699
      3 N         143.4806  141.9810  162.5066 N.am    1  UNL1       -0.2743
      4 C         142.6603  140.8484  161.9641 C.3     1  UNL1        0.1152
      5 C         142.1901  139.7571  162.8795 C.3     1  UNL1        0.1149
      6 N         142.5401  139.7985  164.3375 N.am    1  UNL1       -0.2761
      7 C         142.0698  138.7072  165.2529 C.2     1  UNL1        0.2257
      8 O         142.4198  138.7485  166.7109 O.2     1  UNL1       -0.2749
      9 C         143.3603  140.9310  164.8801 C.3     1  UNL1        0.1132
     10 C         143.8306  142.0224  163.9646 C.3     1  UNL1        0.0955
     11 C         144.6508  143.1549  164.5072 C.3     1  UNL1        0.0233
     12 C         142.9008  142.9482  157.2172 C.ar    1  UNL1        0.1306
     13 C         144.0105  142.0891  157.7467 C.ar    1  UNL1        0.0110
     14 C         144.3605  142.1305  159.2048 C.ar    1  UNL1        0.0032
     15 C         143.6008  143.0309  160.1332 C.ar    1  UNL1        0.0532
     16 C         142.4911  143.8900  159.6036 C.ar    1  UNL1        0.0032
     17 C         142.1411  143.8487  158.1456 C.ar    1  UNL1        0.0110
     18 C         144.7703  141.1886  156.8183 C.3     1  UNL1        0.0218
     19 C         143.6628  140.1796  156.8907 C.3     1  UNL1        0.0045
     20 C         145.8777  142.1977  156.7459 C.3     1  UNL1        0.0045
     21 C         145.5300  140.2882  155.8899 C.3     1  UNL1        0.0045
     22 C         141.0314  144.7078  157.6161 C.3     1  UNL1        0.0218
     23 C         141.9846  145.8586  157.4856 C.3     1  UNL1        0.0045
     24 C         140.0781  143.5570  157.7465 C.3     1  UNL1        0.0045
     25 C         139.9217  145.5670  157.0865 C.3     1  UNL1        0.0045
     26 C         143.2735  143.7936  154.7889 C.3     1  UNL1        0.2524
     27 O         142.5508  142.9069  155.7592 O.3     1  UNL1       -0.4721
     28 C         141.2496  137.5746  164.7103 C.3     1  UNL1        0.0853
     29 C         139.7536  137.6166  164.8109 C.3     1  UNL1        0.0096
     30 C         138.9920  138.7522  164.1939 C.3     1  UNL1        0.0012
     31 C         138.2856  139.7446  165.0691 C.3     1  UNL1        0.0087
     32 C         138.9905  140.9945  165.5060 C.3     1  UNL1        0.0446
     33 C         139.7100  141.0288  166.8218 C.ar    1  UNL1       -0.0183
     34 C         139.4293  139.9810  167.8577 C.ar    1  UNL1       -0.0017
     35 C         140.1488  140.0153  169.1735 C.ar    1  UNL1        0.0293
     36 C         141.1491  141.0975  169.4532 C.ar    1  UNL1        0.1401
     37 F         141.8687  141.1319  170.7689 F       1  UNL1       -0.2042
     38 C         141.4299  142.1454  168.4172 C.ar    1  UNL1        0.0293
     39 C         140.7103  142.1110  167.1015 C.ar    1  UNL1       -0.0017
     40 C         138.9758  142.2100  164.6273 C.ar    1  UNL1       -0.0183
     41 C         140.1741  142.5440  163.7891 C.ar    1  UNL1       -0.0017
     42 C         140.1594  143.7596  162.9103 C.ar    1  UNL1        0.0293
     43 C         138.9465  144.6412  162.8698 C.ar    1  UNL1        0.1401
     44 F         138.9319  145.8567  161.9910 F       1  UNL1       -0.2042
     45 C         137.7482  144.3072  163.7080 C.ar    1  UNL1        0.0293
     46 C         137.7629  143.0916  164.5868 C.ar    1  UNL1       -0.0017
@<TRIPOS>BOND
     1    26    27    1
     2    27    12    1
     3    12    13   ar
     4    13    18    1
     5    18    19    1
     6    18    20    1
     7    18    21    1
     8    13    14   ar
     9    14    15   ar
    10    15     1    1
    11     1     2    2
    12     1     3   am
    13     3     4    1
    14     4     5    1
    15     5     6    1
    16     6     7   am
    17     7     8    2
    18     7    28    1
    19    28    29    1
    20    29    30    1
    21    30    31    1
    22    31    32    1
    23    32    33    1
    24    33    34   ar
    25    34    35   ar
    26    35    36   ar
    27    36    37    1
    28    36    38   ar
    29    38    39   ar
    30    32    40    1
    31    40    41   ar
    32    41    42   ar
    33    42    43   ar
    34    43    44    1
    35    43    45   ar
    36    45    46   ar
    37     6     9    1
    38     9    10    1
    39    10    11    1
    40    15    16   ar
    41    16    17   ar
    42    17    22    1
    43    22    23    1
    44    22    24    1
    45    22    25    1
    46    17    12   ar
    47    10     3    1
    48    39    33   ar
    49    46    40   ar
@<TRIPOS>MOLECULE
*****
 46 49 0 0 0
SMALL
GASTEIGER

@<TRIPOS>ATOM
      1 C         143.9573  143.0614  161.5931 C.2     1  UNL1        0.2490
      2 O         144.7786  144.1975  162.1266 O.2     1  UNL1       -0.2699
      3 N         143.4915  141.9745  162.5159 N.am    1  UNL1       -0.2743
      4 C         142.6701  140.8384  161.9824 C.3     1  UNL1        0.1152
      5 C         142.2044  139.7515  162.9052 C.3     1  UNL1        0.1149
      6 N         142.5599  139.8007  164.3616 N.am    1  UNL1       -0.2761
      7 C         142.0941  138.7137  165.2845 C.2     1  UNL1        0.2257
      8 O         142.4496  138.7629  166.7409 O.2     1  UNL1       -0.2749
      9 C         143.3812  140.9368  164.8952 C.3     1  UNL1        0.1132
     10 C         143.8471  142.0237  163.9723 C.3     1  UNL1        0.0955
     11 C         144.6684  143.1598  164.5059 C.3     1  UNL1        0.0233
     12 C         142.8906  142.9139  157.2238 C.ar    1  UNL1        0.1306
     13 C         142.1275  143.8114  158.1522 C.ar    1  UNL1        0.0110
     14 C         142.4831  143.8606  159.6087 C.ar    1  UNL1        0.0032
     15 C         143.6017  143.0122  160.1366 C.ar    1  UNL1        0.0532
     16 C         144.3649  142.1147  159.2082 C.ar    1  UNL1        0.0032
     17 C         144.0093  142.0655  157.7518 C.ar    1  UNL1        0.0110
     18 C         141.0088  144.6598  157.6243 C.3     1  UNL1        0.0218
     19 C         140.0632  143.5048  157.7718 C.3     1  UNL1        0.0045
     20 C         141.9544  145.8148  157.4767 C.3     1  UNL1        0.0045
     21 C         139.8901  145.5082  157.0963 C.3     1  UNL1        0.0045
     22 C         144.7725  141.1679  156.8234 C.3     1  UNL1        0.0218
     23 C         143.6725  140.1512  156.9021 C.3     1  UNL1        0.0045
     24 C         145.8726  142.1846  156.7446 C.3     1  UNL1        0.0045
     25 C         145.5356  140.2703  155.8950 C.3     1  UNL1        0.0045
     26 C         143.2531  143.7472  154.7899 C.3     1  UNL1        0.2524
     27 O         142.5351  142.8647  155.7674 O.3     1  UNL1       -0.4721
     28 C         141.2728  137.5777  164.7509 C.3     1  UNL1        0.0853
     29 C         139.7778  137.6131  164.8685 C.3     1  UNL1        0.0096
     30 C         139.0010  138.7238  164.2258 C.3     1  UNL1        0.0012
     31 C         138.2861  139.7299  165.0782 C.3     1  UNL1        0.0087
     32 C         138.9894  140.9829  165.5087 C.3     1  UNL1        0.0446
     33 C         138.9721  142.1944  164.6243 C.ar    1  UNL1       -0.0183
     34 C         140.1747  142.5349  163.7951 C.ar    1  UNL1       -0.0017
     35 C         140.1574  143.7464  162.9107 C.ar    1  UNL1        0.0293
     36 C         138.9374  144.6173  162.8555 C.ar    1  UNL1        0.1401
     37 F         138.9200  145.8287  161.9711 F       1  UNL1       -0.2042
     38 C         137.7347  144.2767  163.6847 C.ar    1  UNL1        0.0293
     39 C         137.7520  143.0653  164.5691 C.ar    1  UNL1       -0.0017
     40 C         139.7099  141.0246  166.8236 C.ar    1  UNL1       -0.0183
     41 C         140.7142  142.1052  167.0946 C.ar    1  UNL1       -0.0017
     42 C         141.4348  142.1469  168.4096 C.ar    1  UNL1        0.0293
     43 C         141.1510  141.1078  169.4535 C.ar    1  UNL1        0.1401
     44 F         141.8716  141.1495  170.7684 F       1  UNL1       -0.2042
     45 C         140.1467  140.0271  169.1825 C.ar    1  UNL1        0.0293
     46 C         139.4261  139.9854  167.8676 C.ar    1  UNL1       -0.0017
@<TRIPOS>BOND
     1    26    27    1
     2    27    12    1
     3    12    13   ar
     4    13    18    1
     5    18    19    1
     6    18    20    1
     7    18    21    1
     8    13    14   ar
     9    14    15   ar
    10    15     1    1
    11     1     2    2
    12     1     3   am
    13     3     4    1
    14     4     5    1
    15     5     6    1
    16     6     7   am
    17     7     8    2
    18     7    28    1
    19    28    29    1
    20    29    30    1
    21    30    31    1
    22    31    32    1
    23    32    33    1
    24    33    34   ar
    25    34    35   ar
    26    35    36   ar
    27    36    37    1
    28    36    38   ar
    29    38    39   ar
    30    32    40    1
    31    40    41   ar
    32    41    42   ar
    33    42    43   ar
    34    43    44    1
    35    43    45   ar
    36    45    46   ar
    37     6     9    1
    38     9    10    1
    39    10    11    1
    40    15    16   ar
    41    16    17   ar
    42    17    22    1
    43    22    23    1
    44    22    24    1
    45    22    25    1
    46    17    12   ar
    47    10     3    1
    48    39    33   ar
    49    46    40   ar
@<TRIPOS>MOLECULE
*****
 46 49 0 0 0
SMALL
GASTEIGER

@<TRIPOS>ATOM
      1 C         143.9782  143.0318  161.5648 C.2     1  UNL1        0.2490
      2 O         144.8102  144.1572  162.1044 O.2     1  UNL1       -0.2699
      3 N         143.5058  141.9422  162.4810 N.am    1  UNL1       -0.2743
      4 C         142.6738  140.8167  161.9415 C.3     1  UNL1        0.1152
      5 C         142.2013  139.7271  162.8577 C.3     1  UNL1        0.1149
      6 N         142.5609  139.7629  164.3135 N.am    1  UNL1       -0.2761
      7 C         142.0884  138.6732  165.2298 C.2     1  UNL1        0.2257
      8 O         142.4479  138.7090  166.6856 O.2     1  UNL1       -0.2749
      9 C         143.3929  140.8883  164.8531 C.3     1  UNL1        0.1132
     10 C         143.8654  141.9780  163.9369 C.3     1  UNL1        0.0955
     11 C         144.6973  143.1034  164.4765 C.3     1  UNL1        0.0233
     12 C         142.8996  142.9244  157.1973 C.ar    1  UNL1        0.1306
     13 C         144.0115  142.0619  157.7167 C.ar    1  UNL1        0.0110
     14 C         144.3710  142.0977  159.1725 C.ar    1  UNL1        0.0032
     15 C         143.6187  142.9960  160.1090 C.ar    1  UNL1        0.0532
     16 C         142.5068  143.8585  159.5896 C.ar    1  UNL1        0.0032
     17 C         142.1473  143.8227  158.1338 C.ar    1  UNL1        0.0110
     18 C         144.7639  141.1636  156.7802 C.3     1  UNL1        0.0218
     19 C         145.8607  142.1822  156.6842 C.3     1  UNL1        0.0045
     20 C         143.6670  140.1449  156.8762 C.3     1  UNL1        0.0045
     21 C         145.5162  140.2652  155.8438 C.3     1  UNL1        0.0045
     22 C         141.0353  144.6852  157.6144 C.3     1  UNL1        0.0218
     23 C         140.0846  143.5311  157.7333 C.3     1  UNL1        0.0045
     24 C         141.9860  145.8394  157.4956 C.3     1  UNL1        0.0045
     25 C         139.9234  145.5477  157.0951 C.3     1  UNL1        0.0045
     26 C         143.2308  143.8050  154.7756 C.3     1  UNL1        0.2524
     27 O         142.5400  142.8886  155.7415 O.3     1  UNL1       -0.4721
     28 C         141.2564  137.5478  164.6902 C.3     1  UNL1        0.0853
     29 C         139.7631  137.5871  164.8261 C.3     1  UNL1        0.0096
     30 C         138.9824  138.7063  164.2033 C.3     1  UNL1        0.0012
     31 C         138.2828  139.7078  165.0736 C.3     1  UNL1        0.0087
     32 C         138.9960  140.9553  165.5038 C.3     1  UNL1        0.0446
     33 C         138.9852  142.1678  164.6206 C.ar    1  UNL1       -0.0183
     34 C         137.7527  143.0178  164.5287 C.ar    1  UNL1       -0.0017
     35 C         137.7419  144.2303  163.6456 C.ar    1  UNL1        0.0293
     36 C         138.9636  144.5928  162.8544 C.ar    1  UNL1        0.1401
     37 F         138.9529  145.8052  161.9714 F       1  UNL1       -0.2042
     38 C         140.1962  143.7427  162.9464 C.ar    1  UNL1        0.0293
     39 C         140.2069  142.5303  163.8295 C.ar    1  UNL1       -0.0017
     40 C         139.7200  140.9905  166.8170 C.ar    1  UNL1       -0.0183
     41 C         140.7301  142.0657  167.0881 C.ar    1  UNL1       -0.0017
     42 C         141.4541  142.1008  168.4013 C.ar    1  UNL1        0.0293
     43 C         141.1679  141.0607  169.4435 C.ar    1  UNL1        0.1401
     44 F         141.8919  141.0958  170.7567 F       1  UNL1       -0.2042
     45 C         140.1578  139.9854  169.1725 C.ar    1  UNL1        0.0293
     46 C         139.4338  139.9503  167.8592 C.ar    1  UNL1       -0.0017
@<TRIPOS>BOND
     1    26    27    1
     2    27    12    1
     3    12    13   ar
     4    13    18    1
     5    18    19    1
     6    18    20    1
     7    18    21    1
     8    13    14   ar
     9    14    15   ar
    10    15     1    1
    11     1     2    2
    12     1     3   am
    13     3     4    1
    14     4     5    1
    15     5     6    1
    16     6     7   am
    17     7     8    2
    18     7    28    1
    19    28    29    1
    20    29    30    1
    21    30    31    1
    22    31    32    1
    23    32    33    1
    24    33    34   ar
    25    34    35   ar
    26    35    36   ar
    27    36    37    1
    28    36    38   ar
    29    38    39   ar
    30    32    40    1
    31    40    41   ar
    32    41    42   ar
    33    42    43   ar
    34    43    44    1
    35    43    45   ar
    36    45    46   ar
    37     6     9    1
    38     9    10    1
    39    10    11    1
    40    15    16   ar
    41    16    17   ar
    42    17    22    1
    43    22    23    1
    44    22    24    1
    45    22    25    1
    46    17    12   ar
    47    10     3    1
    48    39    33   ar
    49    46    40   ar
@<TRIPOS>MOLECULE
*****
 46 49 0 0 0
SMALL
GASTEIGER

@<TRIPOS>ATOM
      1 C         139.9058  144.0182  164.1029 C.2     1  UNL1        0.2490
      2 O         138.9677  145.1608  164.3568 O.2     1  UNL1       -0.2699
      3 N         140.6521  143.9350  162.8044 N.am    1  UNL1       -0.2743
      4 C         141.5902  142.7924  162.5505 C.3     1  UNL1        0.1152
      5 C         142.3366  142.7092  161.2520 C.3     1  UNL1        0.1149
      6 N         142.1449  143.7685  160.2075 N.am    1  UNL1       -0.2761
      7 C         142.8913  143.6853  158.9090 C.2     1  UNL1        0.2257
      8 O         142.6996  144.7446  157.8645 O.2     1  UNL1       -0.2749
      9 C         141.2068  144.9111  160.4614 C.3     1  UNL1        0.1132
     10 C         140.4604  144.9944  161.7599 C.3     1  UNL1        0.0955
     11 C         139.5224  146.1370  162.0139 C.3     1  UNL1        0.0233
     12 C         140.4809  140.8402  167.2364 C.ar    1  UNL1        0.1306
     13 C         139.7933  140.5054  165.9460 C.ar    1  UNL1        0.0110
     14 C         139.6016  141.5648  164.9015 C.ar    1  UNL1        0.0032
     15 C         140.0975  142.9589  165.1474 C.ar    1  UNL1        0.0532
     16 C         140.7850  143.2936  166.4378 C.ar    1  UNL1        0.0032
     17 C         140.9767  142.2343  167.4823 C.ar    1  UNL1        0.0110
     18 C         139.2974  139.1112  165.7001 C.3     1  UNL1        0.0218
     19 C         138.0049  139.4507  166.3814 C.3     1  UNL1        0.0045
     20 C         140.5898  138.7717  165.0188 C.3     1  UNL1        0.0045
     21 C         138.8015  137.7171  165.4542 C.3     1  UNL1        0.0045
     22 C         141.6644  142.5691  168.7727 C.3     1  UNL1        0.0218
     23 C         142.9113  141.8940  168.2834 C.3     1  UNL1        0.0045
     24 C         140.4175  143.2442  169.2621 C.3     1  UNL1        0.0045
     25 C         142.3520  142.9039  170.0631 C.3     1  UNL1        0.0045
     26 C         139.9154  139.8563  169.5736 C.3     1  UNL1        0.2524
     27 O         140.6726  139.7808  168.2809 O.3     1  UNL1       -0.4721
     28 C         143.8293  142.5427  158.6551 C.3     1  UNL1        0.0853
     29 C         143.3896  141.3854  157.8082 C.3     1  UNL1        0.0096
     30 C         142.1415  140.6309  158.1589 C.3     1  UNL1        0.0012
     31 C         140.9268  140.7435  157.2860 C.3     1  UNL1        0.0087
     32 C         139.6981  141.4361  157.7965 C.3     1  UNL1        0.0446
     33 C         139.0520  142.5159  156.9801 C.ar    1  UNL1       -0.0183
     34 C         139.8349  143.7367  156.5972 C.ar    1  UNL1       -0.0017
     35 C         139.1888  144.8166  155.7807 C.ar    1  UNL1        0.0293
     36 C         137.7597  144.6756  155.3473 C.ar    1  UNL1        0.1401
     37 F         137.1135  145.7554  154.5309 F       1  UNL1       -0.2042
     38 C         136.9768  143.4547  155.7303 C.ar    1  UNL1        0.0293
     39 C         137.6229  142.3750  156.5467 C.ar    1  UNL1       -0.0017
     40 C         139.1155  141.0488  159.1234 C.ar    1  UNL1       -0.0183
     41 C         138.9272  139.6007  159.4659 C.ar    1  UNL1       -0.0017
     42 C         138.3445  139.2134  160.7928 C.ar    1  UNL1        0.0293
     43 C         137.9503  140.2743  161.7771 C.ar    1  UNL1        0.1401
     44 F         137.3676  139.8871  163.1040 F       1  UNL1       -0.2042
     45 C         138.1386  141.7226  161.4346 C.ar    1  UNL1        0.0293
     46 C         138.7212  142.1098  160.1078 C.ar    1  UNL1       -0.0017
@<TRIPOS>BOND
     1    26    27    1
     2    27    12    1
     3    12    13   ar
     4    13    18    1
     5    18    19    1
     6    18    20    1
     7    18    21    1
     8    13    14   ar
     9    14    15   ar
    10    15     1    1
    11     1     2    2
    12     1     3   am
    13     3     4    1
    14     4     5    1
    15     5     6    1
    16     6     7   am
    17     7     8    2
    18     7    28    1
    19    28    29    1
    20    29    30    1
    21    30    31    1
    22    31    32    1
    23    32    33    1
    24    33    34   ar
    25    34    35   ar
    26    35    36   ar
    27    36    37    1
    28    36    38   ar
    29    38    39   ar
    30    32    40    1
    31    40    41   ar
    32    41    42   ar
    33    42    43   ar
    34    43    44    1
    35    43    45   ar
    36    45    46   ar
    37     6     9    1
    38     9    10    1
    39    10    11    1
    40    15    16   ar
    41    16    17   ar
    42    17    22    1
    43    22    23    1
    44    22    24    1
    45    22    25    1
    46    17    12   ar
    47    10     3    1
    48    39    33   ar
    49    46    40   ar
@<TRIPOS>MOLECULE
*****
 46 49 0 0 0
SMALL
GASTEIGER

@<TRIPOS>ATOM
      1 C         139.8703  143.8669  164.0366 C.2     1  UNL1        0.2490
      2 O         138.8710  144.9715  164.2129 O.2     1  UNL1       -0.2699
      3 N         140.6810  143.7829  162.7773 N.am    1  UNL1       -0.2743
      4 C         141.6805  142.6783  162.6010 C.3     1  UNL1        0.1152
      5 C         142.4912  142.5943  161.3418 C.3     1  UNL1        0.1149
      6 N         142.3025  143.6149  160.2589 N.am    1  UNL1       -0.2761
      7 C         143.1132  143.5309  158.9996 C.2     1  UNL1        0.2257
      8 O         142.9246  144.5516  157.9166 O.2     1  UNL1       -0.2749
      9 C         141.3031  144.7195  160.4351 C.3     1  UNL1        0.1132
     10 C         140.4924  144.8035  161.6944 C.3     1  UNL1        0.0955
     11 C         139.4930  145.9081  161.8707 C.3     1  UNL1        0.0233
     12 C         140.4364  140.8050  167.2853 C.ar    1  UNL1        0.1306
     13 C         140.9373  142.2055  167.4791 C.ar    1  UNL1        0.0110
     14 C         140.7487  143.2261  166.3962 C.ar    1  UNL1        0.0032
     15 C         140.0590  142.8462  165.1195 C.ar    1  UNL1        0.0532
     16 C         139.5580  141.4458  164.9257 C.ar    1  UNL1        0.0032
     17 C         139.7467  140.4251  166.0086 C.ar    1  UNL1        0.0110
     18 C         141.6270  142.5854  168.7559 C.3     1  UNL1        0.0218
     19 C         142.8843  141.9250  168.2733 C.3     1  UNL1        0.0045
     20 C         140.3697  143.2459  169.2385 C.3     1  UNL1        0.0045
     21 C         142.3166  142.9654  170.0326 C.3     1  UNL1        0.0045
     22 C         139.2457  139.0246  165.8148 C.3     1  UNL1        0.0218
     23 C         137.9480  139.3985  166.4676 C.3     1  UNL1        0.0045
     24 C         140.5433  138.6507  165.1620 C.3     1  UNL1        0.0045
     25 C         138.7447  137.6241  165.6210 C.3     1  UNL1        0.0045
     26 C         139.8014  139.8577  169.6197 C.3     1  UNL1        0.2524
     27 O         140.6250  139.7844  168.3683 O.3     1  UNL1       -0.4721
     28 C         144.1126  142.4264  158.8233 C.3     1  UNL1        0.0853
     29 C         143.6925  141.1269  158.2029 C.3     1  UNL1        0.0096
     30 C         142.6879  141.1177  157.0890 C.3     1  UNL1        0.0012
     31 C         141.2383  140.8751  157.3883 C.3     1  UNL1        0.0087
     32 C         140.8089  139.5844  158.0204 C.3     1  UNL1        0.0446
     33 C         141.1838  138.2776  157.3866 C.ar    1  UNL1       -0.0183
     34 C         142.4629  137.5962  157.7731 C.ar    1  UNL1       -0.0017
     35 C         142.8378  136.2894  157.1392 C.ar    1  UNL1        0.0293
     36 C         141.9335  135.6640  156.1188 C.ar    1  UNL1        0.1401
     37 F         142.3084  134.3573  155.4849 F       1  UNL1       -0.2042
     38 C         140.6543  136.3455  155.7323 C.ar    1  UNL1        0.0293
     39 C         140.2795  137.6522  156.3662 C.ar    1  UNL1       -0.0017
     40 C         140.0045  139.6004  159.2864 C.ar    1  UNL1       -0.0183
     41 C         139.6740  138.3129  159.9814 C.ar    1  UNL1       -0.0017
     42 C         138.8696  138.3289  161.2474 C.ar    1  UNL1        0.0293
     43 C         138.3958  139.6325  161.8184 C.ar    1  UNL1        0.1401
     44 F         137.5914  139.6485  163.0844 F       1  UNL1       -0.2042
     45 C         138.7263  140.9201  161.1235 C.ar    1  UNL1        0.0293
     46 C         139.5306  140.9041  159.8575 C.ar    1  UNL1       -0.0017
@<TRIPOS>BOND
     1    26    27    1
     2    27    12    1
     3    12    13   ar
     4    13    18    1
     5    18    19    1
     6    18    20    1
     7    18    21    1
     8    13    14   ar
     9    14    15   ar
    10    15     1    1
    11     1     2    2
    12     1     3   am
    13     3     4    1
    14     4     5    1
    15     5     6    1
    16     6     7   am
    17     7     8    2
    18     7    28    1
    19    28    29    1
    20    29    30    1
    21    30    31    1
    22    31    32    1
    23    32    33    1
    24    33    34   ar
    25    34    35   ar
    26    35    36   ar
    27    36    37    1
    28    36    38   ar
    29    38    39   ar
    30    32    40    1
    31    40    41   ar
    32    41    42   ar
    33    42    43   ar
    34    43    44    1
    35    43    45   ar
    36    45    46   ar
    37     6     9    1
    38     9    10    1
    39    10    11    1
    40    15    16   ar
    41    16    17   ar
    42    17    22    1
    43    22    23    1
    44    22    24    1
    45    22    25    1
    46    17    12   ar
    47    10     3    1
    48    39    33   ar
    49    46    40   ar
@<TRIPOS>MOLECULE
*****
 46 49 0 0 0
SMALL
GASTEIGER

@<TRIPOS>ATOM
      1 C         144.2246  142.1385  160.9049 C.2     1  UNL1        0.2490
      2 O         145.5533  142.8042  161.1079 O.2     1  UNL1       -0.2699
      3 N         143.6426  141.2800  161.9885 N.am    1  UNL1       -0.2743
      4 C         142.3138  140.6142  161.7854 C.3     1  UNL1        0.1152
      5 C         141.7317  139.7558  162.8690 C.3     1  UNL1        0.1149
      6 N         142.4784  139.5630  164.1556 N.am    1  UNL1       -0.2761
      7 C         141.8962  138.7045  165.2392 C.2     1  UNL1        0.2257
      8 O         142.6429  138.5117  166.5258 O.2     1  UNL1       -0.2749
      9 C         143.8071  140.2287  164.3587 C.3     1  UNL1        0.1132
     10 C         144.3892  141.0873  163.2751 C.3     1  UNL1        0.0955
     11 C         145.7179  141.7530  163.4781 C.3     1  UNL1        0.0233
     12 C         141.9847  142.7168  157.0451 C.ar    1  UNL1        0.1306
     13 C         142.8628  141.5148  157.2298 C.ar    1  UNL1        0.0110
     14 C         143.6094  141.3220  158.5164 C.ar    1  UNL1        0.0032
     15 C         143.4780  142.3313  159.6183 C.ar    1  UNL1        0.0532
     16 C         142.5999  143.5332  159.4335 C.ar    1  UNL1        0.0032
     17 C         141.8532  143.7260  158.1469 C.ar    1  UNL1        0.0110
     18 C         142.9943  140.5055  156.1279 C.3     1  UNL1        0.0218
     19 C         141.9403  139.6588  156.7777 C.3     1  UNL1        0.0045
     20 C         144.0482  141.3522  155.4782 C.3     1  UNL1        0.0045
     21 C         143.1258  139.4963  155.0260 C.3     1  UNL1        0.0045
     22 C         140.9751  144.9280  157.9622 C.3     1  UNL1        0.0218
     23 C         139.8582  144.2209  158.6710 C.3     1  UNL1        0.0045
     24 C         142.0920  145.6351  157.2534 C.3     1  UNL1        0.0045
     25 C         140.0970  146.1300  157.7776 C.3     1  UNL1        0.0045
     26 C         139.8485  142.3647  155.6088 C.3     1  UNL1        0.2524
     27 O         141.2380  142.9095  155.7585 O.3     1  UNL1       -0.4721
     28 C         140.5675  138.0387  165.0362 C.3     1  UNL1        0.0853
     29 C         139.3598  138.5343  165.7749 C.3     1  UNL1        0.0096
     30 C         139.4115  139.8445  166.5035 C.3     1  UNL1        0.0012
     31 C         139.1201  141.1213  165.7723 C.3     1  UNL1        0.0087
     32 C         140.0582  142.2854  165.8929 C.3     1  UNL1        0.0446
     33 C         140.2135  143.2450  164.7504 C.ar    1  UNL1       -0.0183
     34 C         139.0394  144.0551  164.2865 C.ar    1  UNL1       -0.0017
     35 C         139.1947  145.0147  163.1440 C.ar    1  UNL1        0.0293
     36 C         140.5241  145.1642  162.4656 C.ar    1  UNL1        0.1401
     37 F         140.6794  146.1237  161.3232 F       1  UNL1       -0.2042
     38 C         141.6982  144.3541  162.9296 C.ar    1  UNL1        0.0293
     39 C         141.5429  143.3946  164.0720 C.ar    1  UNL1       -0.0017
     40 C         140.8411  142.4901  167.1559 C.ar    1  UNL1       -0.0183
     41 C         140.1950  143.1439  168.3412 C.ar    1  UNL1       -0.0017
     42 C         140.9779  143.3486  169.6042 C.ar    1  UNL1        0.0293
     43 C         142.4069  142.8993  169.6819 C.ar    1  UNL1        0.1401
     44 F         143.1898  143.1040  170.9449 F       1  UNL1       -0.2042
     45 C         143.0531  142.2454  168.4966 C.ar    1  UNL1        0.0293
     46 C         142.2702  142.0408  167.2335 C.ar    1  UNL1       -0.0017
@<TRIPOS>BOND
     1    26    27    1
     2    27    12    1
     3    12    13   ar
     4    13    18    1
     5    18    19    1
     6    18    20    1
     7    18    21    1
     8    13    14   ar
     9    14    15   ar
    10    15     1    1
    11     1     2    2
    12     1     3   am
    13     3     4    1
    14     4     5    1
    15     5     6    1
    16     6     7   am
    17     7     8    2
    18     7    28    1
    19    28    29    1
    20    29    30    1
    21    30    31    1
    22    31    32    1
    23    32    33    1
    24    33    34   ar
    25    34    35   ar
    26    35    36   ar
    27    36    37    1
    28    36    38   ar
    29    38    39   ar
    30    32    40    1
    31    40    41   ar
    32    41    42   ar
    33    42    43   ar
    34    43    44    1
    35    43    45   ar
    36    45    46   ar
    37     6     9    1
    38     9    10    1
    39    10    11    1
    40    15    16   ar
    41    16    17   ar
    42    17    22    1
    43    22    23    1
    44    22    24    1
    45    22    25    1
    46    17    12   ar
    47    10     3    1
    48    39    33   ar
    49    46    40   ar
@<TRIPOS>MOLECULE
*****
 46 49 0 0 0
SMALL
GASTEIGER

@<TRIPOS>ATOM
      1 C         139.8852  143.9815  164.0903 C.2     1  UNL1        0.2490
      2 O         138.9362  145.1180  164.3302 O.2     1  UNL1       -0.2699
      3 N         140.6383  143.8938  162.7960 N.am    1  UNL1       -0.2743
      4 C         141.5874  142.7572  162.5560 C.3     1  UNL1        0.1152
      5 C         142.3405  142.6696  161.2618 C.3     1  UNL1        0.1149
      6 N         142.1446  143.7184  160.2075 N.am    1  UNL1       -0.2761
      7 C         142.8977  143.6307  158.9132 C.2     1  UNL1        0.2257
      8 O         142.7017  144.6795  157.8589 O.2     1  UNL1       -0.2749
      9 C         141.1955  144.8549  160.4474 C.3     1  UNL1        0.1132
     10 C         140.4423  144.9426  161.7417 C.3     1  UNL1        0.0955
     11 C         139.4933  146.0791  161.9817 C.3     1  UNL1        0.0233
     12 C         140.4731  140.8350  167.2532 C.ar    1  UNL1        0.1306
     13 C         140.9722  142.2308  167.4820 C.ar    1  UNL1        0.0110
     14 C         140.7763  143.2797  166.4277 C.ar    1  UNL1        0.0032
     15 C         140.0812  142.9326  165.1446 C.ar    1  UNL1        0.0532
     16 C         139.5821  141.5368  164.9158 C.ar    1  UNL1        0.0032
     17 C         139.7780  140.4879  165.9701 C.ar    1  UNL1        0.0110
     18 C         141.6674  142.5780  168.7651 C.3     1  UNL1        0.0218
     19 C         140.4213  143.2521  169.2579 C.3     1  UNL1        0.0045
     20 C         142.9134  141.9038  168.2724 C.3     1  UNL1        0.0045
     21 C         142.3625  142.9250  170.0482 C.3     1  UNL1        0.0045
     22 C         139.2789  139.0920  165.7413 C.3     1  UNL1        0.0218
     23 C         140.5893  138.7271  165.1092 C.3     1  UNL1        0.0045
     24 C         137.9684  139.4569  166.3733 C.3     1  UNL1        0.0045
     25 C         138.7798  137.6961  165.5124 C.3     1  UNL1        0.0045
     26 C         139.8555  139.8276  169.5670 C.3     1  UNL1        0.2524
     27 O         140.6691  139.7862  168.3075 O.3     1  UNL1       -0.4721
     28 C         143.8468  142.4942  158.6732 C.3     1  UNL1        0.0853
     29 C         143.4455  141.3579  157.7801 C.3     1  UNL1        0.0096
     30 C         142.2482  140.5215  158.1223 C.3     1  UNL1        0.0012
     31 C         141.0160  140.5916  157.2699 C.3     1  UNL1        0.0087
     32 C         139.7851  141.2762  157.7859 C.3     1  UNL1        0.0446
     33 C         139.2125  140.8871  159.1166 C.ar    1  UNL1       -0.0183
     34 C         138.8200  141.9468  160.1030 C.ar    1  UNL1       -0.0017
     35 C         138.2474  141.5577  161.4337 C.ar    1  UNL1        0.0293
     36 C         138.0674  140.1089  161.7781 C.ar    1  UNL1        0.1401
     37 F         137.4948  139.7198  163.1087 F       1  UNL1       -0.2042
     38 C         138.4600  139.0492  160.7917 C.ar    1  UNL1        0.0293
     39 C         139.0325  139.4383  159.4610 C.ar    1  UNL1       -0.0017
     40 C         139.1268  142.3498  156.9711 C.ar    1  UNL1       -0.0183
     41 C         137.6715  142.2420  156.6242 C.ar    1  UNL1       -0.0017
     42 C         137.0131  143.3157  155.8095 C.ar    1  UNL1        0.0293
     43 C         137.8101  144.4972  155.3416 C.ar    1  UNL1        0.1401
     44 F         137.1517  145.5708  154.5269 F       1  UNL1       -0.2042
     45 C         139.2655  144.6050  155.6885 C.ar    1  UNL1        0.0293
     46 C         139.9238  143.5313  156.5033 C.ar    1  UNL1       -0.0017
@<TRIPOS>BOND
     1    26    27    1
     2    27    12    1
     3    12    13   ar
     4    13    18    1
     5    18    19    1
     6    18    20    1
     7    18    21    1
     8    13    14   ar
     9    14    15   ar
    10    15     1    1
    11     1     2    2
    12     1     3   am
    13     3     4    1
    14     4     5    1
    15     5     6    1
    16     6     7   am
    17     7     8    2
    18     7    28    1
    19    28    29    1
    20    29    30    1
    21    30    31    1
    22    31    32    1
    23    32    33    1
    24    33    34   ar
    25    34    35   ar
    26    35    36   ar
    27    36    37    1
    28    36    38   ar
    29    38    39   ar
    30    32    40    1
    31    40    41   ar
    32    41    42   ar
    33    42    43   ar
    34    43    44    1
    35    43    45   ar
    36    45    46   ar
    37     6     9    1
    38     9    10    1
    39    10    11    1
    40    15    16   ar
    41    16    17   ar
    42    17    22    1
    43    22    23    1
    44    22    24    1
    45    22    25    1
    46    17    12   ar
    47    10     3    1
    48    39    33   ar
    49    46    40   ar
@<TRIPOS>MOLECULE
*****
 46 49 0 0 0
SMALL
GASTEIGER

@<TRIPOS>ATOM
      1 C         139.8732  143.8586  164.2265 C.2     1  UNL1        0.2490
      2 O         138.8995  144.9871  164.3950 O.2     1  UNL1       -0.2699
      3 N         140.6797  143.7456  162.9668 N.am    1  UNL1       -0.2743
      4 C         141.6534  142.6171  162.7983 C.3     1  UNL1        0.1152
      5 C         142.4599  142.5042  161.5386 C.3     1  UNL1        0.1149
      6 N         142.2927  143.5198  160.4475 N.am    1  UNL1       -0.2761
      7 C         143.0992  143.4068  159.1877 C.2     1  UNL1        0.2257
      8 O         142.9320  144.4224  158.0966 O.2     1  UNL1       -0.2749
      9 C         141.3190  144.6483  160.6160 C.3     1  UNL1        0.1132
     10 C         140.5125  144.7612  161.8757 C.3     1  UNL1        0.0955
     11 C         139.5388  145.8897  162.0442 C.3     1  UNL1        0.0233
     12 C         140.3748  140.8118  167.5000 C.ar    1  UNL1        0.1306
     13 C         139.6818  140.4348  166.2243 C.ar    1  UNL1        0.0110
     14 C         139.5146  141.4504  165.1331 C.ar    1  UNL1        0.0032
     15 C         140.0404  142.8430  165.3177 C.ar    1  UNL1        0.0532
     16 C         140.7333  143.2200  166.5934 C.ar    1  UNL1        0.0032
     17 C         140.9005  142.2045  167.6846 C.ar    1  UNL1        0.0110
     18 C         139.1560  139.0421  166.0396 C.3     1  UNL1        0.0218
     19 C         140.4299  138.6524  165.3503 C.3     1  UNL1        0.0045
     20 C         137.8820  139.4318  166.7289 C.3     1  UNL1        0.0045
     21 C         138.6301  137.6495  165.8550 C.3     1  UNL1        0.0045
     22 C         141.5935  142.5816  168.9604 C.3     1  UNL1        0.0218
     23 C         142.8332  141.8766  168.4954 C.3     1  UNL1        0.0045
     24 C         140.3539  143.2865  169.4255 C.3     1  UNL1        0.0045
     25 C         142.2866  142.9586  170.2361 C.3     1  UNL1        0.0045
     26 C         139.7548  139.9239  169.8616 C.3     1  UNL1        0.2524
     27 O         140.5419  139.7963  168.5912 O.3     1  UNL1       -0.4721
     28 C         144.0729  142.2783  159.0193 C.3     1  UNL1        0.0853
     29 C         143.5755  140.9008  158.6952 C.3     1  UNL1        0.0096
     30 C         143.6528  139.8137  159.7260 C.3     1  UNL1        0.0012
     31 C         142.9799  138.4962  159.4784 C.3     1  UNL1        0.0087
     32 C         141.5355  138.4557  159.0759 C.3     1  UNL1        0.0446
     33 C         141.1387  137.8400  157.7668 C.ar    1  UNL1       -0.0183
     34 C         139.7669  138.0809  157.2100 C.ar    1  UNL1       -0.0017
     35 C         139.3701  137.4653  155.9009 C.ar    1  UNL1        0.0293
     36 C         140.3451  136.6088  155.1487 C.ar    1  UNL1        0.1401
     37 F         139.9484  135.9932  153.8397 F       1  UNL1       -0.2042
     38 C         141.7170  136.3679  155.7057 C.ar    1  UNL1        0.0293
     39 C         142.1137  136.9835  157.0147 C.ar    1  UNL1       -0.0017
     40 C         140.4879  139.0308  159.9824 C.ar    1  UNL1       -0.0183
     41 C         139.8818  138.1827  161.0610 C.ar    1  UNL1       -0.0017
     42 C         138.8342  138.7578  161.9675 C.ar    1  UNL1        0.0293
     43 C         138.3927  140.1809  161.7954 C.ar    1  UNL1        0.1401
     44 F         137.3450  140.7560  162.7019 F       1  UNL1       -0.2042
     45 C         138.9988  141.0291  160.7168 C.ar    1  UNL1        0.0293
     46 C         140.0464  140.4540  159.8103 C.ar    1  UNL1       -0.0017
@<TRIPOS>BOND
     1    26    27    1
     2    27    12    1
     3    12    13   ar
     4    13    18    1
     5    18    19    1
     6    18    20    1
     7    18    21    1
     8    13    14   ar
     9    14    15   ar
    10    15     1    1
    11     1     2    2
    12     1     3   am
    13     3     4    1
    14     4     5    1
    15     5     6    1
    16     6     7   am
    17     7     8    2
    18     7    28    1
    19    28    29    1
    20    29    30    1
    21    30    31    1
    22    31    32    1
    23    32    33    1
    24    33    34   ar
    25    34    35   ar
    26    35    36   ar
    27    36    37    1
    28    36    38   ar
    29    38    39   ar
    30    32    40    1
    31    40    41   ar
    32    41    42   ar
    33    42    43   ar
    34    43    44    1
    35    43    45   ar
    36    45    46   ar
    37     6     9    1
    38     9    10    1
    39    10    11    1
    40    15    16   ar
    41    16    17   ar
    42    17    22    1
    43    22    23    1
    44    22    24    1
    45    22    25    1
    46    17    12   ar
    47    10     3    1
    48    39    33   ar
    49    46    40   ar
