@<TRIPOS>MOLECULE
*****
 30 32 0 0 0
SMALL
GASTEIGER

@<TRIPOS>ATOM
      1 C         140.3276  143.2346  166.2022 C.ar    1  UNL1       -0.0001
      2 C         139.1938  144.2124  166.1116 C.ar    1  UNL1       -0.0003
      3 C         138.8851  144.8840  164.8064 C.ar    1  UNL1       -0.0031
      4 C         139.7102  144.5779  163.5918 C.ar    1  UNL1       -0.0071
      5 C         140.8440  143.6001  163.6824 C.ar    1  UNL1       -0.0071
      6 C         141.1527  142.9284  164.9876 C.ar    1  UNL1       -0.0031
      7 C         141.4781  143.4986  162.3267 C.3     1  UNL1        0.1222
      8 N         140.7360  144.4137  161.3983 N.3     1  UNL1       -0.1466
      9 C         139.6434  145.0808  162.1802 C.3     1  UNL1        0.1222
     10 S         141.0342  144.6248  159.9434 S.O2    1  UNL1        0.0639
     11 O         139.5731  144.8317  159.6740 O.2     1  UNL1       -0.1528
     12 O         142.4952  144.4179  160.2128 O.2     1  UNL1       -0.1528
     13 C         141.3324  144.8358  158.4886 C.ar    1  UNL1        0.1222
     14 C         142.4261  144.0521  157.8258 C.ar    1  UNL1        0.0199
     15 C         142.7243  144.2631  156.3710 C.ar    1  UNL1        0.0013
     16 C         141.9287  145.2580  155.5789 C.ar    1  UNL1        0.0039
     17 C         140.8349  146.0418  156.2417 C.ar    1  UNL1        0.0727
     18 C         140.5368  145.8307  157.6966 C.ar    1  UNL1        0.0238
     19 C         140.0393  147.0366  155.4497 C.3     1  UNL1        0.4186
     20 F         139.2437  148.0314  154.6577 F       1  UNL1       -0.1659
     21 F         139.2303  147.3613  156.6703 F       1  UNL1       -0.1659
     22 F         140.8484  146.7119  154.2290 F       1  UNL1       -0.1659
     23 C         140.2786  143.2349  168.7998 C.2     1  UNL1        0.0598
     24 C         140.6363  142.5629  167.5074 C.2     1  UNL1        0.0047
     25 O         139.6211  141.5743  170.6865 O.2     1  UNL1       -0.2681
     26 C         140.5874  142.5633  170.1050 C.2     1  UNL1        0.2679
     27 N         141.8624  142.8806  170.8287 N.am    1  UNL1       -0.1934
     28 O         142.1711  142.2090  172.1339 O.3     1  UNL1       -0.2949
     29 H         142.4966  143.5298  170.4470 H       1  UNL1        0.1825
     30 H         141.4487  141.6043  172.3652 H       1  UNL1        0.2414
@<TRIPOS>BOND
     1    25    26    2
     2    26    23    1
     3    23    24    2
     4    24     1    1
     5     1     2   ar
     6     2     3   ar
     7     3     4   ar
     8     4     5   ar
     9     5     6   ar
    10     5     7    1
    11     7     8    1
    12     8    10    1
    13    10    11    2
    14    10    12    2
    15    10    13    1
    16    13    14   ar
    17    14    15   ar
    18    15    16   ar
    19    16    17   ar
    20    17    19    1
    21    19    20    1
    22    19    21    1
    23    19    22    1
    24    17    18   ar
    25     8     9    1
    26    26    27   am
    27    27    28    1
    28     6     1   ar
    29    18    13   ar
    30     9     4    1
    31    27    29    1
    32    28    30    1
@<TRIPOS>MOLECULE
*****
 30 32 0 0 0
SMALL
GASTEIGER

@<TRIPOS>ATOM
      1 C         138.5550  139.2984  165.9078 C.ar    1  UNL1       -0.0001
      2 C         138.7896  137.9905  165.2121 C.ar    1  UNL1       -0.0003
      3 C         138.8764  137.9420  163.7154 C.ar    1  UNL1       -0.0031
      4 C         138.7286  139.2015  162.9144 C.ar    1  UNL1       -0.0071
      5 C         138.4940  140.5095  163.6101 C.ar    1  UNL1       -0.0071
      6 C         138.4072  140.5580  165.1068 C.ar    1  UNL1       -0.0031
      7 C         138.3879  141.5788  162.5634 C.3     1  UNL1        0.1222
      8 N         138.5570  140.9316  161.2209 N.3     1  UNL1       -0.1466
      9 C         138.7676  139.4624  161.4378 C.3     1  UNL1        0.1222
     10 S         138.5218  141.6309  159.8942 S.O2    1  UNL1        0.0639
     11 O         138.2075  142.9250  160.5847 O.2     1  UNL1       -0.1528
     12 O         138.8361  140.3368  159.2039 O.2     1  UNL1       -0.1528
     13 C         138.4866  142.3300  158.5676 C.ar    1  UNL1        0.1222
     14 C         137.4965  141.9073  157.5231 C.ar    1  UNL1        0.0199
     15 C         137.4613  142.6064  156.1965 C.ar    1  UNL1        0.0013
     16 C         138.4162  143.7284  155.9144 C.ar    1  UNL1        0.0039
     17 C         139.4062  144.1512  156.9590 C.ar    1  UNL1        0.0727
     18 C         139.4414  143.4520  158.2856 C.ar    1  UNL1        0.0238
     19 C         140.3610  145.2731  156.6769 C.3     1  UNL1        0.4186
     20 F         141.3158  146.3950  156.3949 F       1  UNL1       -0.1659
     21 F         141.5171  144.3609  156.9619 F       1  UNL1       -0.1659
     22 F         139.2049  146.1854  156.3920 F       1  UNL1       -0.1659
     23 C         139.5005  140.0983  168.1917 C.2     1  UNL1        0.0598
     24 C         138.4682  139.3469  167.4045 C.2     1  UNL1        0.0047
     25 O         138.1077  139.8725  170.3732 O.2     1  UNL1       -0.2681
     26 C         139.4137  140.1467  169.6884 C.2     1  UNL1        0.2679
     27 N         140.6331  140.4694  170.5003 N.am    1  UNL1       -0.1934
     28 O         140.5463  140.5179  171.9970 O.3     1  UNL1       -0.2949
     29 H         141.4903  140.6494  170.0509 H       1  UNL1        0.1825
     30 H         139.6386  140.3182  172.2749 H       1  UNL1        0.2414
@<TRIPOS>BOND
     1    25    26    2
     2    26    23    1
     3    23    24    2
     4    24     1    1
     5     1     2   ar
     6     2     3   ar
     7     3     4   ar
     8     4     5   ar
     9     5     6   ar
    10     5     7    1
    11     7     8    1
    12     8    10    1
    13    10    11    2
    14    10    12    2
    15    10    13    1
    16    13    14   ar
    17    14    15   ar
    18    15    16   ar
    19    16    17   ar
    20    17    19    1
    21    19    20    1
    22    19    21    1
    23    19    22    1
    24    17    18   ar
    25     8     9    1
    26    26    27   am
    27    27    28    1
    28     6     1   ar
    29    18    13   ar
    30     9     4    1
    31    27    29    1
    32    28    30    1
@<TRIPOS>MOLECULE
*****
 30 32 0 0 0
SMALL
GASTEIGER

@<TRIPOS>ATOM
      1 C         138.5286  139.1278  165.9061 C.ar    1  UNL1       -0.0001
      2 C         138.8684  137.8019  165.2927 C.ar    1  UNL1       -0.0003
      3 C         138.9519  137.6647  163.8013 C.ar    1  UNL1       -0.0031
      4 C         138.6956  138.8536  162.9233 C.ar    1  UNL1       -0.0071
      5 C         138.3558  140.1795  163.5367 C.ar    1  UNL1       -0.0071
      6 C         138.2723  140.3167  165.0281 C.ar    1  UNL1       -0.0031
      7 C         138.1559  141.1669  162.4253 C.3     1  UNL1        0.1222
      8 N         138.3721  140.4511  161.1250 N.3     1  UNL1       -0.1466
      9 C         138.7057  139.0214  161.4328 C.3     1  UNL1        0.1222
     10 S         138.2724  141.0583  159.7569 S.O2    1  UNL1        0.0639
     11 O         139.1302  142.2050  160.2034 O.2     1  UNL1       -0.1528
     12 O         137.4145  139.9116  159.3106 O.2     1  UNL1       -0.1528
     13 C         138.1726  141.6654  158.3890 C.ar    1  UNL1        0.1222
     14 C         138.9446  142.9093  158.0623 C.ar    1  UNL1        0.0199
     15 C         138.8449  143.5164  156.6944 C.ar    1  UNL1        0.0013
     16 C         137.9729  142.8797  155.6530 C.ar    1  UNL1        0.0039
     17 C         137.2009  141.6359  155.9796 C.ar    1  UNL1        0.0727
     18 C         137.3007  141.0287  157.3477 C.ar    1  UNL1        0.0238
     19 C         136.3290  140.9992  154.9383 C.3     1  UNL1        0.4186
     20 F         135.4571  140.3624  153.8970 F       1  UNL1       -0.1659
     21 F         137.2466  139.8134  154.8951 F       1  UNL1       -0.1659
     22 F         135.4113  142.1850  154.9815 F       1  UNL1       -0.1659
     23 C         139.5232  139.9917  168.1454 C.2     1  UNL1        0.0598
     24 C         138.4451  139.2650  167.3975 C.2     1  UNL1        0.0047
     25 O         138.1161  139.9940  170.3294 O.2     1  UNL1       -0.2681
     26 C         139.4397  140.1289  169.6367 C.2     1  UNL1        0.2679
     27 N         140.6799  140.4008  170.4355 N.am    1  UNL1       -0.1934
     28 O         140.5964  140.5380  171.9269 O.3     1  UNL1       -0.2949
     29 H         141.5487  140.4893  169.9809 H       1  UNL1        0.1825
     30 H         139.6760  140.4243  172.2110 H       1  UNL1        0.2414
@<TRIPOS>BOND
     1    25    26    2
     2    26    23    1
     3    23    24    2
     4    24     1    1
     5     1     2   ar
     6     2     3   ar
     7     3     4   ar
     8     4     5   ar
     9     5     6   ar
    10     5     7    1
    11     7     8    1
    12     8    10    1
    13    10    11    2
    14    10    12    2
    15    10    13    1
    16    13    14   ar
    17    14    15   ar
    18    15    16   ar
    19    16    17   ar
    20    17    19    1
    21    19    20    1
    22    19    21    1
    23    19    22    1
    24    17    18   ar
    25     8     9    1
    26    26    27   am
    27    27    28    1
    28     6     1   ar
    29    18    13   ar
    30     9     4    1
    31    27    29    1
    32    28    30    1
@<TRIPOS>MOLECULE
*****
 30 32 0 0 0
SMALL
GASTEIGER

@<TRIPOS>ATOM
      1 C         139.0873  140.3997  169.7284 C.ar    1  UNL1       -0.0001
      2 C         139.6647  141.7026  170.1962 C.ar    1  UNL1       -0.0003
      3 C         140.3691  142.6027  169.2247 C.ar    1  UNL1       -0.0031
      4 C         140.4960  142.1998  167.7854 C.ar    1  UNL1       -0.0071
      5 C         139.9185  140.8969  167.3176 C.ar    1  UNL1       -0.0071
      6 C         139.2142  139.9968  168.2891 C.ar    1  UNL1       -0.0031
      7 C         140.1965  140.7672  165.8493 C.3     1  UNL1        0.1222
      8 N         140.9458  141.9900  165.4097 N.3     1  UNL1       -0.1466
      9 C         141.1308  142.8754  166.6063 C.3     1  UNL1        0.1222
     10 S         141.4257  142.2771  164.0178 S.O2    1  UNL1        0.0639
     11 O         141.6840  140.8149  163.8052 O.2     1  UNL1       -0.1528
     12 O         141.1674  143.7393  164.2303 O.2     1  UNL1       -0.1528
     13 C         141.9056  142.5643  162.6259 C.ar    1  UNL1        0.1222
     14 C         143.0819  141.8183  162.0693 C.ar    1  UNL1        0.0199
     15 C         143.5619  142.1054  160.6775 C.ar    1  UNL1        0.0013
     16 C         142.8655  143.1386  159.8422 C.ar    1  UNL1        0.0039
     17 C         141.6892  143.8846  160.3988 C.ar    1  UNL1        0.0727
     18 C         141.2093  143.5974  161.7907 C.ar    1  UNL1        0.0238
     19 C         140.9928  144.9178  159.5636 C.3     1  UNL1        0.4186
     20 F         140.2965  145.9509  158.7284 F       1  UNL1       -0.1659
     21 F         141.2170  144.0797  158.3400 F       1  UNL1       -0.1659
     22 F         140.7686  145.7559  160.7873 F       1  UNL1       -0.1659
     23 C         136.9396  139.1506  170.4880 C.2     1  UNL1        0.0598
     24 C         138.3829  139.4996  170.6998 C.2     1  UNL1        0.0047
     25 O         136.5833  136.7927  171.5193 O.2     1  UNL1       -0.2681
     26 C         136.2352  138.2505  171.4595 C.2     1  UNL1        0.2679
     27 N         135.1827  138.8083  172.3712 N.am    1  UNL1       -0.1934
     28 O         134.4784  137.9082  173.3427 O.3     1  UNL1       -0.2949
     29 H         134.9542  139.7651  172.3320 H       1  UNL1        0.1825
     30 H         134.8196  137.0047  173.2522 H       1  UNL1        0.2414
@<TRIPOS>BOND
     1    25    26    2
     2    26    23    1
     3    23    24    2
     4    24     1    1
     5     1     2   ar
     6     2     3   ar
     7     3     4   ar
     8     4     5   ar
     9     5     6   ar
    10     5     7    1
    11     7     8    1
    12     8    10    1
    13    10    11    2
    14    10    12    2
    15    10    13    1
    16    13    14   ar
    17    14    15   ar
    18    15    16   ar
    19    16    17   ar
    20    17    19    1
    21    19    20    1
    22    19    21    1
    23    19    22    1
    24    17    18   ar
    25     8     9    1
    26    26    27   am
    27    27    28    1
    28     6     1   ar
    29    18    13   ar
    30     9     4    1
    31    27    29    1
    32    28    30    1
@<TRIPOS>MOLECULE
*****
 30 32 0 0 0
SMALL
GASTEIGER

@<TRIPOS>ATOM
      1 C         140.9834  143.1142  165.4912 C.ar    1  UNL1       -0.0001
      2 C         142.4262  142.8618  165.1679 C.ar    1  UNL1       -0.0003
      3 C         142.9316  143.0809  163.7727 C.ar    1  UNL1       -0.0031
      4 C         141.9942  143.5524  162.7008 C.ar    1  UNL1       -0.0071
      5 C         140.5514  143.8048  163.0241 C.ar    1  UNL1       -0.0071
      6 C         140.0460  143.5857  164.4193 C.ar    1  UNL1       -0.0031
      7 C         139.8682  144.2621  161.7694 C.3     1  UNL1        0.1222
      8 N         140.8889  144.2922  160.6706 N.3     1  UNL1       -0.1466
      9 C         142.2028  143.8537  161.2463 C.3     1  UNL1        0.1222
     10 S         140.6395  144.6910  159.2462 S.O2    1  UNL1        0.0639
     11 O         139.3454  143.9326  159.2605 O.2     1  UNL1       -0.1528
     12 O         141.9335  145.4494  159.2320 O.2     1  UNL1       -0.1528
     13 C         140.3901  145.0897  157.8219 C.ar    1  UNL1        0.1222
     14 C         140.7368  144.1474  156.7075 C.ar    1  UNL1        0.0199
     15 C         140.4874  144.5461  155.2832 C.ar    1  UNL1        0.0013
     16 C         139.8914  145.8873  154.9731 C.ar    1  UNL1        0.0039
     17 C         139.5448  146.8297  156.0875 C.ar    1  UNL1        0.0727
     18 C         139.7941  146.4309  157.5119 C.ar    1  UNL1        0.0238
     19 C         138.9487  148.1708  155.7775 C.3     1  UNL1        0.4186
     20 F         138.3527  149.5119  155.4675 F       1  UNL1       -0.1659
     21 F         138.5533  148.3275  157.2159 F       1  UNL1       -0.1659
     22 F         139.3442  148.0141  154.3390 F       1  UNL1       -0.1659
     23 C         140.4916  141.5182  167.4814 C.2     1  UNL1        0.0598
     24 C         140.4779  142.8951  166.8864 C.2     1  UNL1        0.0047
     25 O         139.9360  142.4439  169.8446 O.2     1  UNL1       -0.2681
     26 C         139.9862  141.2991  168.8766 C.2     1  UNL1        0.2679
     27 N         139.5309  139.9351  169.3038 N.am    1  UNL1       -0.1934
     28 O         139.0255  139.7160  170.6990 O.3     1  UNL1       -0.2949
     29 H         139.5639  139.1838  168.6685 H       1  UNL1        0.1825
     30 H         139.0592  140.5519  171.1901 H       1  UNL1        0.2414
@<TRIPOS>BOND
     1    25    26    2
     2    26    23    1
     3    23    24    2
     4    24     1    1
     5     1     2   ar
     6     2     3   ar
     7     3     4   ar
     8     4     5   ar
     9     5     6   ar
    10     5     7    1
    11     7     8    1
    12     8    10    1
    13    10    11    2
    14    10    12    2
    15    10    13    1
    16    13    14   ar
    17    14    15   ar
    18    15    16   ar
    19    16    17   ar
    20    17    19    1
    21    19    20    1
    22    19    21    1
    23    19    22    1
    24    17    18   ar
    25     8     9    1
    26    26    27   am
    27    27    28    1
    28     6     1   ar
    29    18    13   ar
    30     9     4    1
    31    27    29    1
    32    28    30    1
@<TRIPOS>MOLECULE
*****
 30 32 0 0 0
SMALL
GASTEIGER

@<TRIPOS>ATOM
      1 C         142.7579  140.9920  166.3966 C.ar    1  UNL1       -0.0001
      2 C         142.8136  139.5376  166.7591 C.ar    1  UNL1       -0.0003
      3 C         142.7156  138.4931  165.6870 C.ar    1  UNL1       -0.0031
      4 C         142.5619  138.9031  164.2523 C.ar    1  UNL1       -0.0071
      5 C         142.5061  140.3575  163.8898 C.ar    1  UNL1       -0.0071
      6 C         142.6041  141.4020  164.9619 C.ar    1  UNL1       -0.0031
      7 C         142.3507  140.4587  162.4013 C.3     1  UNL1        0.1222
      8 N         142.3103  139.0667  161.8438 N.3     1  UNL1       -0.1466
      9 C         142.4408  138.1053  162.9879 C.3     1  UNL1        0.1222
     10 S         142.1650  138.7003  160.3965 S.O2    1  UNL1        0.0639
     11 O         141.2523  139.8730  160.1913 O.2     1  UNL1       -0.1528
     12 O         143.0776  137.5277  160.6017 O.2     1  UNL1       -0.1528
     13 C         142.0197  138.3340  158.9492 C.ar    1  UNL1        0.1222
     14 C         141.1123  139.1324  158.0609 C.ar    1  UNL1        0.0199
     15 C         140.9670  138.7661  156.6136 C.ar    1  UNL1        0.0013
     16 C         141.7291  137.6012  156.0546 C.ar    1  UNL1        0.0039
     17 C         142.6364  136.8027  156.9430 C.ar    1  UNL1        0.0727
     18 C         142.7817  137.1691  158.3903 C.ar    1  UNL1        0.0238
     19 C         143.3984  135.6378  156.3841 C.3     1  UNL1        0.4186
     20 F         144.1604  134.4730  155.8252 F       1  UNL1       -0.1659
     21 F         143.5241  136.3505  155.0703 F       1  UNL1       -0.1659
     22 F         143.2727  134.9251  157.6980 F       1  UNL1       -0.1659
     23 C         142.3229  141.7539  168.8420 C.2     1  UNL1        0.0598
     24 C         142.8559  142.0365  167.4687 C.2     1  UNL1        0.0047
     25 O         141.1737  143.3867  170.5044 O.2     1  UNL1       -0.2681
     26 C         142.4209  142.7984  169.9142 C.2     1  UNL1        0.2679
     27 N         143.7662  143.2545  170.3961 N.am    1  UNL1       -0.1934
     28 O         143.8642  144.2990  171.4683 O.3     1  UNL1       -0.2949
     29 H         144.5848  142.8684  170.0088 H       1  UNL1        0.1825
     30 H         142.9728  144.5707  171.7375 H       1  UNL1        0.2414
@<TRIPOS>BOND
     1    25    26    2
     2    26    23    1
     3    23    24    2
     4    24     1    1
     5     1     2   ar
     6     2     3   ar
     7     3     4   ar
     8     4     5   ar
     9     5     6   ar
    10     5     7    1
    11     7     8    1
    12     8    10    1
    13    10    11    2
    14    10    12    2
    15    10    13    1
    16    13    14   ar
    17    14    15   ar
    18    15    16   ar
    19    16    17   ar
    20    17    19    1
    21    19    20    1
    22    19    21    1
    23    19    22    1
    24    17    18   ar
    25     8     9    1
    26    26    27   am
    27    27    28    1
    28     6     1   ar
    29    18    13   ar
    30     9     4    1
    31    27    29    1
    32    28    30    1
@<TRIPOS>MOLECULE
*****
 30 32 0 0 0
SMALL
GASTEIGER

@<TRIPOS>ATOM
      1 C         139.1027  140.4321  169.6352 C.ar    1  UNL1       -0.0001
      2 C         139.7130  141.7551  169.9919 C.ar    1  UNL1       -0.0003
      3 C         140.4220  142.5609  168.9441 C.ar    1  UNL1       -0.0031
      4 C         140.5206  142.0438  167.5395 C.ar    1  UNL1       -0.0071
      5 C         139.9103  140.7209  167.1828 C.ar    1  UNL1       -0.0071
      6 C         139.2014  139.9150  168.2307 C.ar    1  UNL1       -0.0031
      7 C         140.1651  140.4705  165.7259 C.3     1  UNL1        0.1222
      8 N         140.9329  141.6388  165.1822 N.3     1  UNL1       -0.1466
      9 C         141.1526  142.6111  166.3031 C.3     1  UNL1        0.1222
     10 S         141.3992  141.8055  163.7663 S.O2    1  UNL1        0.0639
     11 O         142.4515  140.7601  163.9897 O.2     1  UNL1       -0.1528
     12 O         140.3469  142.8509  163.5429 O.2     1  UNL1       -0.1528
     13 C         141.8654  141.9723  162.3504 C.ar    1  UNL1        0.1222
     14 C         142.0881  143.3461  161.7910 C.ar    1  UNL1        0.0199
     15 C         142.5544  143.5128  160.3751 C.ar    1  UNL1        0.0013
     16 C         142.7979  142.3057  159.5185 C.ar    1  UNL1        0.0039
     17 C         142.5751  140.9319  160.0779 C.ar    1  UNL1        0.0727
     18 C         142.1089  140.7652  161.4939 C.ar    1  UNL1        0.0238
     19 C         142.8186  139.7248  159.2215 C.3     1  UNL1        0.4186
     20 F         143.0621  138.5177  158.3650 F       1  UNL1       -0.1659
     21 F         141.3690  139.3551  159.3304 F       1  UNL1       -0.1659
     22 F         144.2683  140.0944  159.1125 F       1  UNL1       -0.1659
     23 C         137.0388  139.0501  170.3969 C.2     1  UNL1        0.0598
     24 C         138.3938  139.6263  170.6831 C.2     1  UNL1        0.0047
     25 O         136.7579  136.8338  171.7233 O.2     1  UNL1       -0.2681
     26 C         136.3299  138.2442  171.4447 C.2     1  UNL1        0.2679
     27 N         135.1929  138.8488  172.2141 N.am    1  UNL1       -0.1934
     28 O         134.4840  138.0430  173.2619 O.3     1  UNL1       -0.2949
     29 H         134.9120  139.7745  172.0313 H       1  UNL1        0.1825
     30 H         134.8820  137.1600  173.3150 H       1  UNL1        0.2414
@<TRIPOS>BOND
     1    25    26    2
     2    26    23    1
     3    23    24    2
     4    24     1    1
     5     1     2   ar
     6     2     3   ar
     7     3     4   ar
     8     4     5   ar
     9     5     6   ar
    10     5     7    1
    11     7     8    1
    12     8    10    1
    13    10    11    2
    14    10    12    2
    15    10    13    1
    16    13    14   ar
    17    14    15   ar
    18    15    16   ar
    19    16    17   ar
    20    17    19    1
    21    19    20    1
    22    19    21    1
    23    19    22    1
    24    17    18   ar
    25     8     9    1
    26    26    27   am
    27    27    28    1
    28     6     1   ar
    29    18    13   ar
    30     9     4    1
    31    27    29    1
    32    28    30    1
@<TRIPOS>MOLECULE
*****
 30 32 0 0 0
SMALL
GASTEIGER

@<TRIPOS>ATOM
      1 C         141.2406  142.1677  166.9206 C.ar    1  UNL1       -0.0001
      2 C         142.7252  142.3781  166.8828 C.ar    1  UNL1       -0.0003
      3 C         143.3955  142.7642  165.5976 C.ar    1  UNL1       -0.0031
      4 C         142.5810  142.9399  164.3503 C.ar    1  UNL1       -0.0071
      5 C         141.0964  142.7294  164.3881 C.ar    1  UNL1       -0.0071
      6 C         140.4262  142.3433  165.6733 C.ar    1  UNL1       -0.0031
      7 C         140.5584  142.9728  163.0092 C.3     1  UNL1        0.1222
      8 N         141.7105  143.3337  162.1192 N.3     1  UNL1       -0.1466
      9 C         142.9606  143.3133  162.9480 C.3     1  UNL1        0.1222
     10 S         141.6273  143.6581  160.6570 S.O2    1  UNL1        0.0639
     11 O         143.0025  144.2547  160.7110 O.2     1  UNL1       -0.1528
     12 O         140.2522  143.0614  160.6029 O.2     1  UNL1       -0.1528
     13 C         141.5441  143.9824  159.1949 C.ar    1  UNL1        0.1222
     14 C         142.2610  143.1250  158.1944 C.ar    1  UNL1        0.0199
     15 C         142.1777  143.4493  156.7323 C.ar    1  UNL1        0.0013
     16 C         141.3775  144.6311  156.2705 C.ar    1  UNL1        0.0039
     17 C         140.6606  145.4885  157.2710 C.ar    1  UNL1        0.0727
     18 C         140.7439  145.1641  158.7332 C.ar    1  UNL1        0.0238
     19 C         139.8604  146.6702  156.8093 C.3     1  UNL1        0.4186
     20 F         139.0602  147.8519  156.3476 F       1  UNL1       -0.1659
     21 F         140.2804  146.4019  155.3946 F       1  UNL1       -0.1659
     22 F         139.4404  146.9386  158.2241 F       1  UNL1       -0.1659
     23 C         141.3515  141.0823  169.2785 C.2     1  UNL1        0.0598
     24 C         140.5703  141.7816  168.2058 C.2     1  UNL1        0.0047
     25 O         140.6056  141.6786  171.6947 O.2     1  UNL1       -0.2681
     26 C         140.6813  140.6962  170.5637 C.2     1  UNL1        0.2679
     27 N         140.0867  139.3277  170.7179 N.am    1  UNL1       -0.1934
     28 O         139.4165  138.9416  172.0030 O.3     1  UNL1       -0.2949
     29 H         140.1364  138.6829  169.9755 H       1  UNL1        0.1825
     30 H         139.4547  139.6859  172.6239 H       1  UNL1        0.2414
@<TRIPOS>BOND
     1    25    26    2
     2    26    23    1
     3    23    24    2
     4    24     1    1
     5     1     2   ar
     6     2     3   ar
     7     3     4   ar
     8     4     5   ar
     9     5     6   ar
    10     5     7    1
    11     7     8    1
    12     8    10    1
    13    10    11    2
    14    10    12    2
    15    10    13    1
    16    13    14   ar
    17    14    15   ar
    18    15    16   ar
    19    16    17   ar
    20    17    19    1
    21    19    20    1
    22    19    21    1
    23    19    22    1
    24    17    18   ar
    25     8     9    1
    26    26    27   am
    27    27    28    1
    28     6     1   ar
    29    18    13   ar
    30     9     4    1
    31    27    29    1
    32    28    30    1
@<TRIPOS>MOLECULE
*****
 30 32 0 0 0
SMALL
GASTEIGER

@<TRIPOS>ATOM
      1 C         139.9555  139.9259  166.0241 C.ar    1  UNL1       -0.0001
      2 C         138.8929  138.9079  165.7333 C.ar    1  UNL1       -0.0003
      3 C         138.8336  138.2493  164.3869 C.ar    1  UNL1       -0.0031
      4 C         139.8369  138.6086  163.3314 C.ar    1  UNL1       -0.0071
      5 C         140.8995  139.6266  163.6222 C.ar    1  UNL1       -0.0071
      6 C         140.9587  140.2853  164.9685 C.ar    1  UNL1       -0.0031
      7 C         141.7462  139.7769  162.3931 C.3     1  UNL1        0.1222
      8 N         141.2070  138.8518  161.3428 N.3     1  UNL1       -0.1466
      9 C         140.0269  138.1298  161.9226 C.3     1  UNL1        0.1222
     10 S         141.7520  138.6790  159.9560 S.O2    1  UNL1        0.0639
     11 O         140.7827  139.7045  159.4472 O.2     1  UNL1       -0.1528
     12 O         142.7213  137.6535  160.4647 O.2     1  UNL1       -0.1528
     13 C         142.2970  138.5062  158.5692 C.ar    1  UNL1        0.1222
     14 C         142.5334  139.7065  157.7013 C.ar    1  UNL1        0.0199
     15 C         143.0784  139.5337  156.3146 C.ar    1  UNL1        0.0013
     16 C         143.3871  138.1605  155.7958 C.ar    1  UNL1        0.0039
     17 C         143.1508  136.9602  156.6637 C.ar    1  UNL1        0.0727
     18 C         142.6057  137.1330  158.0505 C.ar    1  UNL1        0.0238
     19 C         143.4595  135.5870  156.1450 C.3     1  UNL1        0.4186
     20 F         143.7681  134.2139  155.6262 F       1  UNL1       -0.1659
     21 F         143.5796  136.1390  154.7554 F       1  UNL1       -0.1659
     22 F         143.3393  135.0350  157.5346 F       1  UNL1       -0.1659
     23 C         139.4743  139.8755  168.5767 C.2     1  UNL1        0.0598
     24 C         140.0147  140.5846  167.3704 C.2     1  UNL1        0.0047
     25 O         139.4127  139.7071  171.1686 O.2     1  UNL1       -0.2681
     26 C         139.5336  140.5341  169.9231 C.2     1  UNL1        0.2679
     27 N         139.7138  142.0199  170.0239 N.am    1  UNL1       -0.1934
     28 O         139.7730  142.6785  171.3702 O.3     1  UNL1       -0.2949
     29 H         139.7931  142.5627  169.2064 H       1  UNL1        0.1825
     30 H         139.6798  142.0064  172.0634 H       1  UNL1        0.2414
@<TRIPOS>BOND
     1    25    26    2
     2    26    23    1
     3    23    24    2
     4    24     1    1
     5     1     2   ar
     6     2     3   ar
     7     3     4   ar
     8     4     5   ar
     9     5     6   ar
    10     5     7    1
    11     7     8    1
    12     8    10    1
    13    10    11    2
    14    10    12    2
    15    10    13    1
    16    13    14   ar
    17    14    15   ar
    18    15    16   ar
    19    16    17   ar
    20    17    19    1
    21    19    20    1
    22    19    21    1
    23    19    22    1
    24    17    18   ar
    25     8     9    1
    26    26    27   am
    27    27    28    1
    28     6     1   ar
    29    18    13   ar
    30     9     4    1
    31    27    29    1
    32    28    30    1
