@<TRIPOS>MOLECULE
*****
 38 41 0 0 0
SMALL
GASTEIGER

@<TRIPOS>ATOM
      1 C         142.4826  143.5127  158.4096 C.ar    1  UNL1        0.1331
      2 C         141.1064  143.9286  157.9819 C.ar    1  UNL1        0.0346
      3 C         140.1678  144.5483  158.9743 C.ar    1  UNL1        0.0102
      4 C         140.6054  144.7521  160.3945 C.ar    1  UNL1        0.0849
      5 C         141.9817  144.3363  160.8222 C.ar    1  UNL1        0.1379
      6 N         142.9203  143.7166  159.8298 N.ar    1  UNL1       -0.2158
      7 C         145.4013  141.9111  156.4141 C.3     1  UNL1        0.0933
      8 C         144.3299  141.9675  155.3657 C.3     1  UNL1        0.0428
      9 C         143.1063  142.5743  155.9856 C.3     1  UNL1        0.0940
     10 N         143.4213  142.8930  157.4171 N.pl3   1  UNL1       -0.2915
     11 C         144.8396  142.4831  157.6820 C.3     1  UNL1        0.1117
     12 C         147.8390  142.2258  155.5723 C.2     1  UNL1        0.2460
     13 O         147.4985  143.6095  155.1039 O.2     1  UNL1       -0.2701
     14 N         146.7903  141.3766  156.2274 N.am    1  UNL1       -0.3007
     15 H         147.0137  140.4684  156.5349 H       1  UNL1        0.1497
     16 C         149.8118  141.5847  154.0080 C.2     1  UNL1        0.0048
     17 C         149.2280  141.6913  155.3856 C.2     1  UNL1        0.0577
     18 C         139.6668  145.3718  161.3870 C.2     1  UNL1        0.2455
     19 N         138.5039  144.5838  161.9128 N.am    1  UNL1       -0.3252
     20 O         139.8911  146.7797  161.8536 O.2     1  UNL1       -0.2703
     21 H         138.3566  143.6598  161.6065 H       1  UNL1        0.1453
     22 H         137.8878  144.9905  162.5641 H       1  UNL1        0.1453
     23 N         142.4193  144.5401  162.2424 N.pl3   1  UNL1       -0.2978
     24 H         143.0929  145.2255  162.4564 H       1  UNL1        0.1536
     25 C         141.8308  143.6997  163.3366 C.ar    1  UNL1        0.0494
     26 C         140.9362  144.3262  164.3648 C.ar    1  UNL1        0.0159
     27 C         140.3476  143.4856  165.4590 C.ar    1  UNL1        0.0158
     28 C         140.6537  142.0187  165.5249 C.ar    1  UNL1        0.0481
     29 C         141.5483  141.3922  164.4967 C.ar    1  UNL1        0.0158
     30 C         142.1369  142.2327  163.4026 C.ar    1  UNL1        0.0159
     31 N         140.0652  141.1782  166.6191 N.pl3   1  UNL1       -0.3029
     32 C         139.0676  140.1079  166.2886 C.3     1  UNL1        0.1205
     33 C         138.4790  139.2674  167.3827 C.3     1  UNL1        0.1349
     34 C         137.4814  138.1972  167.0521 C.3     1  UNL1        0.0339
     35 O         138.8881  139.4972  168.8074 O.3     1  UNL1       -0.3552
     36 C         139.8857  140.5675  169.1380 C.3     1  UNL1        0.1349
     37 C         140.2947  140.7972  170.5628 C.3     1  UNL1        0.0339
     38 C         140.4742  141.4080  168.0438 C.3     1  UNL1        0.1205
@<TRIPOS>BOND
     1    16    17    2
     2    17    12    1
     3    12    13    2
     4    12    14   am
     5     7    14    1
     6     7     8    1
     7     8     9    1
     8     9    10    1
     9    10     1    1
    10     1     2   ar
    11     2     3   ar
    12     3     4   ar
    13     4    18    1
    14    18    19   am
    15    18    20    2
    16     4     5   ar
    17     5    23    1
    18    23    25    1
    19    25    26   ar
    20    26    27   ar
    21    27    28   ar
    22    28    31    1
    23    31    32    1
    24    32    33    1
    25    33    34    1
    26    33    35    1
    27    35    36    1
    28    36    37    1
    29    36    38    1
    30    28    29   ar
    31    29    30   ar
    32     5     6   ar
    33    10    11    1
    34    11     7    1
    35     6     1   ar
    36    30    25   ar
    37    38    31    1
    38    14    15    1
    39    19    21    1
    40    19    22    1
    41    23    24    1
@<TRIPOS>MOLECULE
*****
 38 41 0 0 0
SMALL
GASTEIGER

@<TRIPOS>ATOM
      1 C         138.6494  141.7734  156.9774 C.ar    1  UNL1        0.1331
      2 C         140.0319  141.8332  156.3985 C.ar    1  UNL1        0.0346
      3 C         141.1069  142.6069  157.1025 C.ar    1  UNL1        0.0102
      4 C         140.7995  143.3207  158.3854 C.ar    1  UNL1        0.0849
      5 C         139.4170  143.2609  158.9643 C.ar    1  UNL1        0.1379
      6 N         138.3420  142.4872  158.2603 N.ar    1  UNL1       -0.2158
      7 C         135.3990  140.1605  155.5994 C.3     1  UNL1        0.0933
      8 C         136.4410  139.4576  154.7806 C.3     1  UNL1        0.0428
      9 C         137.7854  139.9762  155.1972 C.3     1  UNL1        0.0940
     10 N         137.5743  140.9997  156.2734 N.pl3   1  UNL1       -0.2915
     11 C         136.0995  141.1135  156.5219 C.3     1  UNL1        0.1117
     12 C         133.1597  139.4397  156.7021 C.2     1  UNL1        0.2460
     13 O         133.8849  139.1445  157.9815 O.2     1  UNL1       -0.2701
     14 N         133.9168  139.9477  155.5110 N.am    1  UNL1       -0.3007
     15 H         133.4408  140.1415  154.6713 H       1  UNL1        0.1497
     16 C         130.9335  138.6395  157.7763 C.2     1  UNL1        0.0048
     17 C         131.6775  139.2269  156.6138 C.2     1  UNL1        0.0577
     18 C         141.8746  144.0944  159.0894 C.2     1  UNL1        0.2455
     19 N         143.1631  143.4215  159.4593 N.am    1  UNL1       -0.3252
     20 O         141.6612  145.5411  159.4235 O.2     1  UNL1       -0.2703
     21 H         143.3032  142.4720  159.2401 H       1  UNL1        0.1453
     22 H         143.8687  143.9293  159.9214 H       1  UNL1        0.1453
     23 N         139.1096  143.9748  160.2472 N.pl3   1  UNL1       -0.2978
     24 H         138.9197  144.9408  160.2397 H       1  UNL1        0.1536
     25 C         139.0916  143.2169  161.5415 C.ar    1  UNL1        0.0494
     26 C         140.0912  142.1255  161.7855 C.ar    1  UNL1        0.0159
     27 C         140.0732  141.3676  163.0799 C.ar    1  UNL1        0.0158
     28 C         139.0556  141.7012  164.1302 C.ar    1  UNL1        0.0481
     29 C         138.0560  142.7927  163.8862 C.ar    1  UNL1        0.0158
     30 C         138.0740  143.5505  162.5919 C.ar    1  UNL1        0.0159
     31 N         139.0375  140.9433  165.4246 N.pl3   1  UNL1       -0.3029
     32 C         139.8304  141.4415  166.5965 C.3     1  UNL1        0.1205
     33 C         139.8124  140.6837  167.8908 C.3     1  UNL1        0.1349
     34 C         140.6052  141.1819  169.0627 C.3     1  UNL1        0.0339
     35 O         139.0015  139.4277  168.0133 O.3     1  UNL1       -0.3552
     36 C         138.2087  138.9296  166.8414 C.3     1  UNL1        0.1349
     37 C         137.3978  137.6735  166.9640 C.3     1  UNL1        0.0339
     38 C         138.2267  139.6874  165.5471 C.3     1  UNL1        0.1205
@<TRIPOS>BOND
     1    16    17    2
     2    17    12    1
     3    12    13    2
     4    12    14   am
     5     7    14    1
     6     7     8    1
     7     8     9    1
     8     9    10    1
     9    10     1    1
    10     1     2   ar
    11     2     3   ar
    12     3     4   ar
    13     4    18    1
    14    18    19   am
    15    18    20    2
    16     4     5   ar
    17     5    23    1
    18    23    25    1
    19    25    26   ar
    20    26    27   ar
    21    27    28   ar
    22    28    31    1
    23    31    32    1
    24    32    33    1
    25    33    34    1
    26    33    35    1
    27    35    36    1
    28    36    37    1
    29    36    38    1
    30    28    29   ar
    31    29    30   ar
    32     5     6   ar
    33    10    11    1
    34    11     7    1
    35     6     1   ar
    36    30    25   ar
    37    38    31    1
    38    14    15    1
    39    19    21    1
    40    19    22    1
    41    23    24    1
@<TRIPOS>MOLECULE
*****
 38 41 0 0 0
SMALL
GASTEIGER

@<TRIPOS>ATOM
      1 C         140.6585  141.6284  166.6214 C.ar    1  UNL1        0.1331
      2 C         140.1477  143.0289  166.4548 C.ar    1  UNL1        0.0346
      3 C         139.2753  143.3747  165.2847 C.ar    1  UNL1        0.0102
      4 C         138.9136  142.3201  164.2812 C.ar    1  UNL1        0.0849
      5 C         139.4244  140.9197  164.4478 C.ar    1  UNL1        0.1379
      6 N         140.2969  140.5738  165.6178 N.ar    1  UNL1       -0.2158
      7 C         142.5542  140.0727  169.6300 C.3     1  UNL1        0.0933
      8 C         143.1931  141.4278  169.5542 C.3     1  UNL1        0.0428
      9 C         142.5607  142.1754  168.4179 C.3     1  UNL1        0.0940
     10 N         141.5310  141.2825  167.7915 N.pl3   1  UNL1       -0.2915
     11 C         141.5270  139.9829  168.5406 C.3     1  UNL1        0.1117
     12 C         143.4900  137.7062  170.1534 C.2     1  UNL1        0.2460
     13 O         143.7651  137.4923  168.6945 O.2     1  UNL1       -0.2701
     14 N         142.8846  138.9964  170.6212 N.am    1  UNL1       -0.3007
     15 H         142.7040  139.1368  171.5788 H       1  UNL1        0.1497
     16 C         145.0003  135.7333  170.9128 C.2     1  UNL1        0.0048
     17 C         143.8203  136.6299  171.1446 C.2     1  UNL1        0.0577
     18 C         138.0411  142.6661  163.1111 C.2     1  UNL1        0.2455
     19 N         138.3170  143.9037  162.3098 N.am    1  UNL1       -0.3252
     20 O         136.8927  141.7743  162.7423 O.2     1  UNL1       -0.2703
     21 H         139.0707  144.4890  162.5519 H       1  UNL1        0.1453
     22 H         137.7443  144.1308  161.5418 H       1  UNL1        0.1453
     23 N         139.0628  139.8651  163.4442 N.pl3   1  UNL1       -0.2978
     24 H         138.2672  139.3028  163.5861 H       1  UNL1        0.1536
     25 C         139.9132  139.6673  162.2246 C.ar    1  UNL1        0.0494
     26 C         141.2559  140.3295  162.1310 C.ar    1  UNL1        0.0159
     27 C         142.1064  140.1316  160.9113 C.ar    1  UNL1        0.0158
     28 C         141.6142  139.2716  159.7853 C.ar    1  UNL1        0.0481
     29 C         140.2715  138.6094  159.8788 C.ar    1  UNL1        0.0158
     30 C         139.4211  138.8072  161.0985 C.ar    1  UNL1        0.0159
     31 N         142.4647  139.0737  158.5656 N.pl3   1  UNL1       -0.3029
     32 C         143.3948  140.1610  158.1154 C.3     1  UNL1        0.1205
     33 C         144.2453  139.9631  156.8958 C.3     1  UNL1        0.1349
     34 C         145.1754  141.0504  156.4456 C.3     1  UNL1        0.0339
     35 O         144.1656  138.6780  156.1263 O.3     1  UNL1       -0.3552
     36 C         143.2354  137.5908  156.5765 C.3     1  UNL1        0.1349
     37 C         143.1557  136.3056  155.8069 C.3     1  UNL1        0.0339
     38 C         142.3850  137.7886  157.7961 C.3     1  UNL1        0.1205
@<TRIPOS>BOND
     1    16    17    2
     2    17    12    1
     3    12    13    2
     4    12    14   am
     5     7    14    1
     6     7     8    1
     7     8     9    1
     8     9    10    1
     9    10     1    1
    10     1     2   ar
    11     2     3   ar
    12     3     4   ar
    13     4    18    1
    14    18    19   am
    15    18    20    2
    16     4     5   ar
    17     5    23    1
    18    23    25    1
    19    25    26   ar
    20    26    27   ar
    21    27    28   ar
    22    28    31    1
    23    31    32    1
    24    32    33    1
    25    33    34    1
    26    33    35    1
    27    35    36    1
    28    36    37    1
    29    36    38    1
    30    28    29   ar
    31    29    30   ar
    32     5     6   ar
    33    10    11    1
    34    11     7    1
    35     6     1   ar
    36    30    25   ar
    37    38    31    1
    38    14    15    1
    39    19    21    1
    40    19    22    1
    41    23    24    1
@<TRIPOS>MOLECULE
*****
 38 41 0 0 0
SMALL
GASTEIGER

@<TRIPOS>ATOM
      1 C         141.1577  138.9633  159.6683 C.ar    1  UNL1        0.1331
      2 C         142.1600  140.0645  159.8493 C.ar    1  UNL1        0.0346
      3 C         143.1423  140.3713  158.7581 C.ar    1  UNL1        0.0102
      4 C         143.1224  139.5769  157.4859 C.ar    1  UNL1        0.0849
      5 C         142.1202  138.4757  157.3049 C.ar    1  UNL1        0.1379
      6 N         141.1378  138.1689  158.3961 N.ar    1  UNL1       -0.2158
      7 C         139.2135  138.2294  162.9466 C.3     1  UNL1        0.0933
      8 C         138.1134  138.1391  161.9308 C.3     1  UNL1        0.0428
      9 C         138.7078  138.4030  160.5791 C.3     1  UNL1        0.0940
     10 N         140.1753  138.6565  160.7595 N.pl3   1  UNL1       -0.2915
     11 C         140.4877  138.5492  162.2227 C.3     1  UNL1        0.1117
     12 C         138.4522  139.1143  165.2677 C.2     1  UNL1        0.2460
     13 O         137.9873  140.3894  164.6290 O.2     1  UNL1       -0.2701
     14 N         139.0653  138.0343  164.4264 N.am    1  UNL1       -0.3007
     15 H         139.3704  137.1973  164.8456 H       1  UNL1        0.1497
     16 C         139.1253  139.7388  167.6981 C.2     1  UNL1        0.0048
     17 C         138.3039  138.9191  166.7475 C.2     1  UNL1        0.0577
     18 C         144.1049  139.8837  156.3946 C.2     1  UNL1        0.2455
     19 N         145.5257  140.2207  156.7376 N.am    1  UNL1       -0.3252
     20 O         143.6664  139.8536  154.9605 O.2     1  UNL1       -0.2703
     21 H         145.8135  140.2405  157.6789 H       1  UNL1        0.1453
     22 H         146.1705  140.4221  156.0214 H       1  UNL1        0.1453
     23 N         142.1003  137.6813  156.0326 N.pl3   1  UNL1       -0.2978
     24 H         142.0273  138.1421  155.1657 H       1  UNL1        0.1536
     25 C         142.1915  136.1849  156.0813 C.ar    1  UNL1        0.0494
     26 C         143.2034  135.5237  156.9695 C.ar    1  UNL1        0.0159
     27 C         143.2946  134.0272  157.0181 C.ar    1  UNL1        0.0158
     28 C         142.3740  133.1921  156.1785 C.ar    1  UNL1        0.0481
     29 C         141.3622  133.8533  155.2903 C.ar    1  UNL1        0.0158
     30 C         141.2709  135.3497  155.2417 C.ar    1  UNL1        0.0159
     31 N         142.4653  131.6956  156.2272 N.pl3   1  UNL1       -0.3029
     32 C         143.3980  131.0322  157.1967 C.3     1  UNL1        0.1205
     33 C         143.4893  129.5358  157.2453 C.3     1  UNL1        0.1349
     34 C         144.4220  128.8724  158.2148 C.3     1  UNL1        0.0339
     35 O         142.6478  128.7028  156.3245 O.3     1  UNL1       -0.3552
     36 C         141.7151  129.3662  155.3550 C.3     1  UNL1        0.1349
     37 C         140.8736  128.5331  154.4341 C.3     1  UNL1        0.0339
     38 C         141.6238  130.8626  155.3063 C.3     1  UNL1        0.1205
@<TRIPOS>BOND
     1    16    17    2
     2    17    12    1
     3    12    13    2
     4    12    14   am
     5     7    14    1
     6     7     8    1
     7     8     9    1
     8     9    10    1
     9    10     1    1
    10     1     2   ar
    11     2     3   ar
    12     3     4   ar
    13     4    18    1
    14    18    19   am
    15    18    20    2
    16     4     5   ar
    17     5    23    1
    18    23    25    1
    19    25    26   ar
    20    26    27   ar
    21    27    28   ar
    22    28    31    1
    23    31    32    1
    24    32    33    1
    25    33    34    1
    26    33    35    1
    27    35    36    1
    28    36    37    1
    29    36    38    1
    30    28    29   ar
    31    29    30   ar
    32     5     6   ar
    33    10    11    1
    34    11     7    1
    35     6     1   ar
    36    30    25   ar
    37    38    31    1
    38    14    15    1
    39    19    21    1
    40    19    22    1
    41    23    24    1
@<TRIPOS>MOLECULE
*****
 38 41 0 0 0
SMALL
GASTEIGER

@<TRIPOS>ATOM
      1 C         142.2878  138.4873  160.2938 C.ar    1  UNL1        0.1331
      2 C         140.8316  138.7775  160.0813 C.ar    1  UNL1        0.0346
      3 C         140.1973  138.4970  158.7513 C.ar    1  UNL1        0.0102
      4 C         141.0191  137.9263  157.6338 C.ar    1  UNL1        0.0849
      5 C         142.4753  137.6360  157.8463 C.ar    1  UNL1        0.1379
      6 N         143.1097  137.9166  159.1763 N.ar    1  UNL1       -0.2158
      7 C         143.3854  138.7677  164.0062 C.3     1  UNL1        0.0933
      8 C         144.4116  139.6313  163.3346 C.3     1  UNL1        0.0428
      9 C         144.1253  139.6314  161.8622 C.3     1  UNL1        0.0940
     10 N         142.9222  138.7678  161.6238 N.pl3   1  UNL1       -0.2915
     11 C         142.4649  138.2341  162.9489 C.3     1  UNL1        0.1117
     12 C         142.8131  139.5529  166.4158 C.2     1  UNL1        0.2460
     13 O         142.4207  140.8994  165.8838 O.2     1  UNL1       -0.2701
     14 N         143.2954  138.4871  165.4770 N.am    1  UNL1       -0.3007
     15 H         143.5529  137.6033  165.8262 H       1  UNL1        0.1497
     16 C         142.7128  140.4071  168.8674 C.2     1  UNL1        0.0048
     17 C         142.7231  139.2722  167.8866 C.2     1  UNL1        0.0577
     18 C         140.3847  137.6457  156.3038 C.2     1  UNL1        0.2455
     19 N         139.1102  136.8582  156.2320 N.am    1  UNL1       -0.3252
     20 O         141.0249  138.1528  155.0456 O.2     1  UNL1       -0.2703
     21 H         138.6900  136.5253  157.0577 H       1  UNL1        0.1453
     22 H         138.6938  136.6741  155.3590 H       1  UNL1        0.1453
     23 N         143.2972  137.0653  156.7288 N.pl3   1  UNL1       -0.2978
     24 H         143.8858  137.6522  156.2012 H       1  UNL1        0.1536
     25 C         143.2223  135.6004  156.4151 C.ar    1  UNL1        0.0494
     26 C         143.4184  134.5890  157.5053 C.ar    1  UNL1        0.0159
     27 C         143.3434  133.1240  157.1915 C.ar    1  UNL1        0.0158
     28 C         143.0723  132.6706  155.7876 C.ar    1  UNL1        0.0481
     29 C         142.8762  133.6821  154.6975 C.ar    1  UNL1        0.0158
     30 C         142.9512  135.1470  155.0112 C.ar    1  UNL1        0.0159
     31 N         142.9973  131.2057  155.4739 N.pl3   1  UNL1       -0.3029
     32 C         141.6627  130.5419  155.3064 C.3     1  UNL1        0.1205
     33 C         141.5876  129.0770  154.9926 C.3     1  UNL1        0.1349
     34 C         140.2530  128.4133  154.8251 C.3     1  UNL1        0.0339
     35 O         142.8473  128.2759  154.8464 O.3     1  UNL1       -0.3552
     36 C         144.1820  128.9397  155.0139 C.3     1  UNL1        0.1349
     37 C         145.4417  128.1385  154.8676 C.3     1  UNL1        0.0339
     38 C         144.2570  130.4045  155.3276 C.3     1  UNL1        0.1205
@<TRIPOS>BOND
     1    16    17    2
     2    17    12    1
     3    12    13    2
     4    12    14   am
     5     7    14    1
     6     7     8    1
     7     8     9    1
     8     9    10    1
     9    10     1    1
    10     1     2   ar
    11     2     3   ar
    12     3     4   ar
    13     4    18    1
    14    18    19   am
    15    18    20    2
    16     4     5   ar
    17     5    23    1
    18    23    25    1
    19    25    26   ar
    20    26    27   ar
    21    27    28   ar
    22    28    31    1
    23    31    32    1
    24    32    33    1
    25    33    34    1
    26    33    35    1
    27    35    36    1
    28    36    37    1
    29    36    38    1
    30    28    29   ar
    31    29    30   ar
    32     5     6   ar
    33    10    11    1
    34    11     7    1
    35     6     1   ar
    36    30    25   ar
    37    38    31    1
    38    14    15    1
    39    19    21    1
    40    19    22    1
    41    23    24    1
@<TRIPOS>MOLECULE
*****
 38 41 0 0 0
SMALL
GASTEIGER

@<TRIPOS>ATOM
      1 C         142.3802  143.0347  159.3040 C.ar    1  UNL1        0.1331
      2 C         141.0178  143.3667  158.7717 C.ar    1  UNL1        0.0346
      3 C         140.0811  144.2118  159.5831 C.ar    1  UNL1        0.0102
      4 C         140.5069  144.7248  160.9268 C.ar    1  UNL1        0.0849
      5 C         141.8693  144.3928  161.4591 C.ar    1  UNL1        0.1379
      6 N         142.8060  143.5477  160.6477 N.ar    1  UNL1       -0.2158
      7 C         144.9909  141.5000  156.8761 C.3     1  UNL1        0.0933
      8 C         144.5261  140.2782  157.6119 C.3     1  UNL1        0.0428
      9 C         143.4915  140.7045  158.6109 C.3     1  UNL1        0.0940
     10 N         143.3170  142.1896  158.4926 N.pl3   1  UNL1       -0.2915
     11 C         144.2436  142.6812  157.4204 C.3     1  UNL1        0.1117
     12 C         147.3600  142.1631  156.0408 C.2     1  UNL1        0.2460
     13 O         147.6669  142.7574  157.3834 O.2     1  UNL1       -0.2701
     14 N         146.0220  141.5344  155.7871 N.am    1  UNL1       -0.3007
     15 H         145.8205  141.1443  154.9060 H       1  UNL1        0.1497
     16 C         149.8001  141.7711  155.2394 C.2     1  UNL1        0.0048
     17 C         148.3910  142.1975  154.9519 C.2     1  UNL1        0.0577
     18 C         139.5701  145.5699  161.7383 C.2     1  UNL1        0.2455
     19 N         138.2760  144.9935  162.2311 N.am    1  UNL1       -0.3252
     20 O         139.9275  146.9914  162.0568 O.2     1  UNL1       -0.2703
     21 H         138.0414  144.0605  162.0220 H       1  UNL1        0.1453
     22 H         137.6612  145.5481  162.7637 H       1  UNL1        0.1453
     23 N         142.2951  144.9058  162.8028 N.pl3   1  UNL1       -0.2978
     24 H         142.7277  145.7869  162.8788 H       1  UNL1        0.1536
     25 C         142.0619  144.0764  164.0306 C.ar    1  UNL1        0.0494
     26 C         140.7014  144.0358  164.6611 C.ar    1  UNL1        0.0159
     27 C         140.4682  143.2064  165.8890 C.ar    1  UNL1        0.0158
     28 C         141.5955  142.4174  166.4863 C.ar    1  UNL1        0.0481
     29 C         142.9559  142.4579  165.8559 C.ar    1  UNL1        0.0158
     30 C         143.1892  143.2874  164.6281 C.ar    1  UNL1        0.0159
     31 N         141.3623  141.5879  167.7142 N.pl3   1  UNL1       -0.3029
     32 C         142.5204  141.1847  168.5780 C.3     1  UNL1        0.1205
     33 C         142.2873  140.3553  169.8058 C.3     1  UNL1        0.1349
     34 C         143.4454  139.9520  170.6696 C.3     1  UNL1        0.0339
     35 O         140.8960  139.9290  170.1699 O.3     1  UNL1       -0.3552
     36 C         139.7378  140.3323  169.3061 C.3     1  UNL1        0.1349
     37 C         138.3465  139.9060  169.6703 C.3     1  UNL1        0.0339
     38 C         139.9710  141.1617  168.0783 C.3     1  UNL1        0.1205
@<TRIPOS>BOND
     1    16    17    2
     2    17    12    1
     3    12    13    2
     4    12    14   am
     5     7    14    1
     6     7     8    1
     7     8     9    1
     8     9    10    1
     9    10     1    1
    10     1     2   ar
    11     2     3   ar
    12     3     4   ar
    13     4    18    1
    14    18    19   am
    15    18    20    2
    16     4     5   ar
    17     5    23    1
    18    23    25    1
    19    25    26   ar
    20    26    27   ar
    21    27    28   ar
    22    28    31    1
    23    31    32    1
    24    32    33    1
    25    33    34    1
    26    33    35    1
    27    35    36    1
    28    36    37    1
    29    36    38    1
    30    28    29   ar
    31    29    30   ar
    32     5     6   ar
    33    10    11    1
    34    11     7    1
    35     6     1   ar
    36    30    25   ar
    37    38    31    1
    38    14    15    1
    39    19    21    1
    40    19    22    1
    41    23    24    1
@<TRIPOS>MOLECULE
*****
 38 41 0 0 0
SMALL
GASTEIGER

@<TRIPOS>ATOM
      1 C         140.3880  138.6273  156.5479 C.ar    1  UNL1        0.1331
      2 C         140.4305  139.8652  155.7019 C.ar    1  UNL1        0.0346
      3 C         139.6276  141.0698  156.0945 C.ar    1  UNL1        0.0102
      4 C         138.7820  141.0365  157.3330 C.ar    1  UNL1        0.0849
      5 C         138.7395  139.7986  158.1790 C.ar    1  UNL1        0.1379
      6 N         139.5424  138.5940  157.7864 N.ar    1  UNL1       -0.2158
      7 C         142.8378  135.6400  156.1744 C.3     1  UNL1        0.0933
      8 C         142.0152  135.4977  154.9282 C.3     1  UNL1        0.0428
      9 C         140.9974  136.5995  154.9164 C.3     1  UNL1        0.0940
     10 N         141.1909  137.4226  156.1554 N.pl3   1  UNL1       -0.2915
     11 C         142.3284  136.8296  156.9329 C.3     1  UNL1        0.1117
     12 C         143.7088  133.3122  156.9314 C.2     1  UNL1        0.2460
     13 O         142.3136  132.7665  156.8585 O.2     1  UNL1       -0.2701
     14 N         143.9710  134.7490  156.5894 N.am    1  UNL1       -0.3007
     15 H         144.8868  135.1072  156.6372 H       1  UNL1        0.1497
     16 C         145.2116  131.2364  156.5041 C.2     1  UNL1        0.0048
     17 C         144.8420  132.4212  157.3464 C.2     1  UNL1        0.0577
     18 C         137.9791  142.2412  157.7255 C.2     1  UNL1        0.2455
     19 N         136.9423  142.7888  156.7901 N.am    1  UNL1       -0.3252
     20 O         138.2129  142.8983  159.0535 O.2     1  UNL1       -0.2703
     21 H         136.7888  142.3576  155.9184 H       1  UNL1        0.1453
     22 H         136.4153  143.5795  157.0477 H       1  UNL1        0.1453
     23 N         137.8939  139.7653  159.4175 N.pl3   1  UNL1       -0.2978
     24 H         136.9124  139.7852  159.3441 H       1  UNL1        0.1536
     25 C         138.5439  139.7017  160.7678 C.ar    1  UNL1        0.0494
     26 C         137.9251  138.8806  161.8601 C.ar    1  UNL1        0.0159
     27 C         138.5752  138.8170  163.2105 C.ar    1  UNL1        0.0158
     28 C         139.8438  139.5745  163.4686 C.ar    1  UNL1        0.0481
     29 C         140.4625  140.3956  162.3764 C.ar    1  UNL1        0.0158
     30 C         139.8126  140.4593  161.0260 C.ar    1  UNL1        0.0159
     31 N         140.4938  139.5110  164.8190 N.pl3   1  UNL1       -0.3029
     32 C         139.7868  140.0685  166.0187 C.3     1  UNL1        0.1205
     33 C         140.4367  140.0049  167.3690 C.3     1  UNL1        0.1349
     34 C         139.7296  140.5625  168.5687 C.3     1  UNL1        0.0339
     35 O         141.7937  139.3838  167.5197 O.3     1  UNL1       -0.3552
     36 C         142.5008  138.8263  166.3200 C.3     1  UNL1        0.1349
     37 C         143.8578  138.2052  166.4708 C.3     1  UNL1        0.0339
     38 C         141.8508  138.8899  164.9697 C.3     1  UNL1        0.1205
@<TRIPOS>BOND
     1    16    17    2
     2    17    12    1
     3    12    13    2
     4    12    14   am
     5     7    14    1
     6     7     8    1
     7     8     9    1
     8     9    10    1
     9    10     1    1
    10     1     2   ar
    11     2     3   ar
    12     3     4   ar
    13     4    18    1
    14    18    19   am
    15    18    20    2
    16     4     5   ar
    17     5    23    1
    18    23    25    1
    19    25    26   ar
    20    26    27   ar
    21    27    28   ar
    22    28    31    1
    23    31    32    1
    24    32    33    1
    25    33    34    1
    26    33    35    1
    27    35    36    1
    28    36    37    1
    29    36    38    1
    30    28    29   ar
    31    29    30   ar
    32     5     6   ar
    33    10    11    1
    34    11     7    1
    35     6     1   ar
    36    30    25   ar
    37    38    31    1
    38    14    15    1
    39    19    21    1
    40    19    22    1
    41    23    24    1
@<TRIPOS>MOLECULE
*****
 38 41 0 0 0
SMALL
GASTEIGER

@<TRIPOS>ATOM
      1 C         139.6938  141.3637  157.6956 C.ar    1  UNL1        0.1331
      2 C         140.8142  142.2903  157.3267 C.ar    1  UNL1        0.0346
      3 C         141.0902  143.5038  158.1639 C.ar    1  UNL1        0.0102
      4 C         140.2458  143.7908  159.3700 C.ar    1  UNL1        0.0849
      5 C         139.1254  142.8642  159.7389 C.ar    1  UNL1        0.1379
      6 N         138.8494  141.6506  158.9017 N.ar    1  UNL1       -0.2158
      7 C         139.4129  137.8678  156.0326 C.3     1  UNL1        0.0933
      8 C         138.5728  138.6972  155.1072 C.3     1  UNL1        0.0428
      9 C         138.5758  140.1077  155.6176 C.3     1  UNL1        0.0940
     10 N         139.4177  140.1500  156.8583 N.pl3   1  UNL1       -0.2915
     11 C         139.9351  138.7656  157.1148 C.3     1  UNL1        0.1117
     12 C         140.9778  135.9247  155.3075 C.2     1  UNL1        0.2460
     13 O         142.0018  136.9205  154.8493 O.2     1  UNL1       -0.2701
     14 N         139.6834  136.3984  155.8991 N.am    1  UNL1       -0.3007
     15 H         139.0113  135.7448  156.1999 H       1  UNL1        0.1497
     16 C         142.3633  133.8241  155.9538 C.2     1  UNL1        0.0048
     17 C         141.2483  134.4553  155.1740 C.2     1  UNL1        0.0577
     18 C         140.5219  145.0044  160.2073 C.2     1  UNL1        0.2455
     19 N         141.8844  145.2136  160.7986 N.am    1  UNL1       -0.3252
     20 O         139.4353  146.0089  160.4532 O.2     1  UNL1       -0.2703
     21 H         142.5976  144.5543  160.6371 H       1  UNL1        0.1453
     22 H         142.0656  146.0101  161.3481 H       1  UNL1        0.1453
     23 N         138.2811  143.1512  160.9450 N.pl3   1  UNL1       -0.2978
     24 H         137.3703  143.5083  160.8346 H       1  UNL1        0.1536
     25 C         138.8244  142.8941  162.3193 C.ar    1  UNL1        0.0494
     26 C         138.6882  143.9387  163.3871 C.ar    1  UNL1        0.0159
     27 C         139.2316  143.6816  164.7615 C.ar    1  UNL1        0.0158
     28 C         139.9110  142.3799  165.0679 C.ar    1  UNL1        0.0481
     29 C         140.0472  141.3353  164.0001 C.ar    1  UNL1        0.0158
     30 C         139.5039  141.5924  162.6258 C.ar    1  UNL1        0.0159
     31 N         140.4544  142.1228  166.4422 N.pl3   1  UNL1       -0.3029
     32 C         141.2558  140.8839  166.7122 C.3     1  UNL1        0.1205
     33 C         141.7992  140.6267  168.0864 C.3     1  UNL1        0.1349
     34 C         142.6006  139.3879  168.3564 C.3     1  UNL1        0.0339
     35 O         141.5411  141.6085  169.1907 O.3     1  UNL1       -0.3552
     36 C         140.7396  142.8473  168.9208 C.3     1  UNL1        0.1349
     37 C         140.4815  143.8291  170.0252 C.3     1  UNL1        0.0339
     38 C         140.1963  143.1045  167.5466 C.3     1  UNL1        0.1205
@<TRIPOS>BOND
     1    16    17    2
     2    17    12    1
     3    12    13    2
     4    12    14   am
     5     7    14    1
     6     7     8    1
     7     8     9    1
     8     9    10    1
     9    10     1    1
    10     1     2   ar
    11     2     3   ar
    12     3     4   ar
    13     4    18    1
    14    18    19   am
    15    18    20    2
    16     4     5   ar
    17     5    23    1
    18    23    25    1
    19    25    26   ar
    20    26    27   ar
    21    27    28   ar
    22    28    31    1
    23    31    32    1
    24    32    33    1
    25    33    34    1
    26    33    35    1
    27    35    36    1
    28    36    37    1
    29    36    38    1
    30    28    29   ar
    31    29    30   ar
    32     5     6   ar
    33    10    11    1
    34    11     7    1
    35     6     1   ar
    36    30    25   ar
    37    38    31    1
    38    14    15    1
    39    19    21    1
    40    19    22    1
    41    23    24    1
@<TRIPOS>MOLECULE
*****
 38 41 0 0 0
SMALL
GASTEIGER

@<TRIPOS>ATOM
      1 C         142.9655  134.6756  156.4876 C.ar    1  UNL1        0.1331
      2 C         141.7420  134.7252  155.6213 C.ar    1  UNL1        0.0346
      3 C         140.9434  135.9911  155.5231 C.ar    1  UNL1        0.0102
      4 C         141.3683  137.2074  156.2912 C.ar    1  UNL1        0.0849
      5 C         142.5918  137.1579  157.1575 C.ar    1  UNL1        0.1379
      6 N         143.3904  135.8920  157.2557 N.ar    1  UNL1       -0.2158
      7 C         144.7850  131.2763  156.0408 C.3     1  UNL1        0.0933
      8 C         145.2014  131.6471  157.4334 C.3     1  UNL1        0.0428
      9 C         144.5705  132.9656  157.7702 C.3     1  UNL1        0.0940
     10 N         143.7642  133.4097  156.5858 N.pl3   1  UNL1       -0.2915
     11 C         143.8968  132.3657  155.5170 C.3     1  UNL1        0.1117
     12 C         144.5388  128.7223  155.6327 C.2     1  UNL1        0.2460
     13 O         143.4897  128.6525  156.7026 O.2     1  UNL1       -0.2701
     14 N         145.1864  130.0342  155.3018 N.am    1  UNL1       -0.3007
     15 H         145.8749  130.0800  154.5996 H       1  UNL1        0.1497
     16 C         146.1696  126.7264  155.3061 C.2     1  UNL1        0.0048
     17 C         144.9401  127.4802  154.8936 C.2     1  UNL1        0.0577
     18 C         140.5696  138.4734  156.1930 C.2     1  UNL1        0.2455
     19 N         139.0905  138.4481  156.4409 N.am    1  UNL1       -0.3252
     20 O         141.2501  139.7645  155.8468 O.2     1  UNL1       -0.2703
     21 H         138.6438  137.6007  156.6680 H       1  UNL1        0.1453
     22 H         138.5663  139.2790  156.3764 H       1  UNL1        0.1453
     23 N         143.0167  138.3742  157.9255 N.pl3   1  UNL1       -0.2978
     24 H         143.5673  139.0642  157.4896 H       1  UNL1        0.1536
     25 C         142.6028  138.5394  159.3578 C.ar    1  UNL1        0.0494
     26 C         143.3141  137.7777  160.4366 C.ar    1  UNL1        0.0159
     27 C         142.9001  137.9429  161.8689 C.ar    1  UNL1        0.0158
     28 C         141.7748  138.8696  162.2223 C.ar    1  UNL1        0.0481
     29 C         141.0636  139.6313  161.1434 C.ar    1  UNL1        0.0158
     30 C         141.4775  139.4662  159.7112 C.ar    1  UNL1        0.0159
     31 N         141.3608  139.0348  163.6546 N.pl3   1  UNL1       -0.3029
     32 C         139.9183  139.2627  163.9968 C.3     1  UNL1        0.1205
     33 C         139.5043  139.4278  165.4290 C.3     1  UNL1        0.1349
     34 C         138.0617  139.6557  165.7712 C.3     1  UNL1        0.0339
     35 O         140.5328  139.3651  166.5190 O.3     1  UNL1       -0.3552
     36 C         141.9754  139.1373  166.1768 C.3     1  UNL1        0.1349
     37 C         143.0039  139.0746  167.2669 C.3     1  UNL1        0.0339
     38 C         142.3894  138.9721  164.7446 C.3     1  UNL1        0.1205
@<TRIPOS>BOND
     1    16    17    2
     2    17    12    1
     3    12    13    2
     4    12    14   am
     5     7    14    1
     6     7     8    1
     7     8     9    1
     8     9    10    1
     9    10     1    1
    10     1     2   ar
    11     2     3   ar
    12     3     4   ar
    13     4    18    1
    14    18    19   am
    15    18    20    2
    16     4     5   ar
    17     5    23    1
    18    23    25    1
    19    25    26   ar
    20    26    27   ar
    21    27    28   ar
    22    28    31    1
    23    31    32    1
    24    32    33    1
    25    33    34    1
    26    33    35    1
    27    35    36    1
    28    36    37    1
    29    36    38    1
    30    28    29   ar
    31    29    30   ar
    32     5     6   ar
    33    10    11    1
    34    11     7    1
    35     6     1   ar
    36    30    25   ar
    37    38    31    1
    38    14    15    1
    39    19    21    1
    40    19    22    1
    41    23    24    1
