@<TRIPOS>MOLECULE
*****
 31 35 0 0 0
SMALL
GASTEIGER

@<TRIPOS>ATOM
      1 C         140.1093  146.1922  154.9344 C.ar    1  UNL1        0.0567
      2 C         140.2162  145.3221  153.7172 C.ar    1  UNL1        0.1236
      3 N         140.5815  143.9386  154.1672 N.ar    1  UNL1       -0.1621
      4 N         140.7003  143.9537  155.6625 N.ar    1  UNL1       -0.2106
      5 C         141.0364  142.8791  156.6535 C.ar    1  UNL1        0.1036
      6 C         141.0808  143.1974  158.1186 C.ar    1  UNL1        0.0399
      7 C         140.7890  144.5902  158.5928 C.ar    1  UNL1        0.0845
      8 N         140.4528  145.6648  157.6017 N.ar    1  UNL1       -0.2264
      9 C         140.4084  145.3465  156.1366 C.ar    1  UNL1        0.1652
     10 C         139.0729  150.5712  154.9726 C.ar    1  UNL1        0.1057
     11 C         140.0203  150.0336  153.9414 C.ar    1  UNL1        0.0183
     12 C         140.3657  148.5740  153.9287 C.ar    1  UNL1        0.0015
     13 C         139.7638  147.6519  154.9471 C.ar    1  UNL1        0.0046
     14 C         138.8163  148.1894  155.9784 C.ar    1  UNL1        0.0015
     15 C         138.4709  149.6491  155.9911 C.ar    1  UNL1        0.0183
     16 C         138.3820  153.4904  154.9982 C.3     1  UNL1        0.1816
     17 S         138.7274  152.0308  154.9853 S.O2    1  UNL1        0.0104
     18 O         138.9707  152.0754  156.4648 O.2     1  UNL1       -0.1686
     19 O         138.4842  151.9861  153.5059 O.2     1  UNL1       -0.1686
     20 C         140.8333  144.9084  160.0580 C.ar    1  UNL1        0.0190
     21 C         139.8237  145.8447  160.6530 C.ar    1  UNL1        0.0016
     22 C         139.8681  146.1629  162.1183 C.ar    1  UNL1        0.0014
     23 C         140.9221  145.5449  162.9884 C.ar    1  UNL1        0.0183
     24 C         141.9317  144.6086  162.3933 C.ar    1  UNL1        0.1056
     25 C         141.8873  144.2904  160.9281 C.ar    1  UNL1        0.0198
     26 S         142.9857  143.9906  163.2634 S.O2    1  UNL1        0.0070
     27 O         141.9186  143.3635  164.1107 O.2     1  UNL1       -0.1687
     28 O         144.0529  144.6176  162.4160 O.2     1  UNL1       -0.1687
     29 C         144.0397  143.3725  164.1335 C.3     1  UNL1        0.1339
     30 C         145.1430  142.3751  164.3279 C.3     1  UNL1        0.0257
     31 C         144.7620  143.2995  165.4461 C.3     1  UNL1        0.0257
@<TRIPOS>BOND
     1    16    17    1
     2    17    18    2
     3    17    19    2
     4    17    10    1
     5    10    11   ar
     6    11    12   ar
     7    12    13   ar
     8    13     1    1
     9     1     2   ar
    10     2     3   ar
    11     3     4   ar
    12     4     5   ar
    13     5     6   ar
    14     6     7   ar
    15     7    20    1
    16    20    21   ar
    17    21    22   ar
    18    22    23   ar
    19    23    24   ar
    20    24    26    1
    21    26    27    2
    22    26    28    2
    23    26    29    1
    24    29    30    1
    25    30    31    1
    26    24    25   ar
    27     7     8   ar
    28     8     9   ar
    29    13    14   ar
    30    14    15   ar
    31    15    10   ar
    32     9     1   ar
    33     9     4   ar
    34    25    20   ar
    35    31    29    1
@<TRIPOS>MOLECULE
*****
 31 35 0 0 0
SMALL
GASTEIGER

@<TRIPOS>ATOM
      1 C         140.9799  138.5043  164.4943 C.ar    1  UNL1        0.0567
      2 C         141.0769  137.0439  164.1660 C.ar    1  UNL1        0.1236
      3 N         141.0468  136.9015  162.6731 N.ar    1  UNL1       -0.1621
      4 N         140.9312  138.2739  162.0787 N.ar    1  UNL1       -0.2106
      5 C         140.8583  138.7495  160.6580 C.ar    1  UNL1        0.1036
      6 C         140.7440  140.2157  160.3630 C.ar    1  UNL1        0.0399
      7 C         140.7026  141.2063  161.4886 C.ar    1  UNL1        0.0845
      8 N         140.7756  140.7307  162.9093 N.ar    1  UNL1       -0.2264
      9 C         140.8899  139.2645  163.2044 C.ar    1  UNL1        0.1652
     10 C         140.9620  140.2914  168.6243 C.ar    1  UNL1        0.1057
     11 C         142.2625  139.9397  167.9648 C.ar    1  UNL1        0.0183
     12 C         142.2685  139.3440  166.5882 C.ar    1  UNL1        0.0015
     13 C         140.9740  139.1000  165.8710 C.ar    1  UNL1        0.0046
     14 C         139.6733  139.4517  166.5304 C.ar    1  UNL1        0.0015
     15 C         139.6674  140.0474  167.9070 C.ar    1  UNL1        0.0183
     16 C         140.9501  141.4827  171.3775 C.3     1  UNL1        0.1816
     17 S         140.9561  140.8871  170.0009 S.O2    1  UNL1        0.0104
     18 O         140.0123  139.8156  170.4604 O.2     1  UNL1       -0.1686
     19 O         141.8998  141.9586  169.5413 O.2     1  UNL1       -0.1686
     20 C         140.5883  142.6726  161.1934 C.ar    1  UNL1        0.0190
     21 C         140.3083  143.6415  162.3036 C.ar    1  UNL1        0.0016
     22 C         140.1939  145.1078  162.0085 C.ar    1  UNL1        0.0014
     23 C         140.3597  145.6050  160.6030 C.ar    1  UNL1        0.0183
     24 C         140.6398  144.6360  159.4928 C.ar    1  UNL1        0.1056
     25 C         140.7541  143.1698  159.7880 C.ar    1  UNL1        0.0198
     26 S         140.8055  145.1333  158.0873 S.O2    1  UNL1        0.0070
     27 O         142.0245  145.9022  158.5032 O.2     1  UNL1       -0.1687
     28 O         139.5866  144.3644  157.6715 O.2     1  UNL1       -0.1687
     29 C         140.9713  145.6305  156.6819 C.3     1  UNL1        0.1339
     30 C         141.6557  145.5546  155.3493 C.3     1  UNL1        0.0257
     31 C         140.5740  146.5678  155.5802 C.3     1  UNL1        0.0257
@<TRIPOS>BOND
     1    16    17    1
     2    17    18    2
     3    17    19    2
     4    17    10    1
     5    10    11   ar
     6    11    12   ar
     7    12    13   ar
     8    13     1    1
     9     1     2   ar
    10     2     3   ar
    11     3     4   ar
    12     4     5   ar
    13     5     6   ar
    14     6     7   ar
    15     7    20    1
    16    20    21   ar
    17    21    22   ar
    18    22    23   ar
    19    23    24   ar
    20    24    26    1
    21    26    27    2
    22    26    28    2
    23    26    29    1
    24    29    30    1
    25    30    31    1
    26    24    25   ar
    27     7     8   ar
    28     8     9   ar
    29    13    14   ar
    30    14    15   ar
    31    15    10   ar
    32     9     1   ar
    33     9     4   ar
    34    25    20   ar
    35    31    29    1
@<TRIPOS>MOLECULE
*****
 31 35 0 0 0
SMALL
GASTEIGER

@<TRIPOS>ATOM
      1 C         138.0922  142.5910  156.8621 C.ar    1  UNL1        0.0567
      2 C         137.5886  141.4314  156.0549 C.ar    1  UNL1        0.1236
      3 N         137.3259  140.2919  156.9943 N.ar    1  UNL1       -0.1621
      4 N         137.6673  140.7472  158.3822 N.ar    1  UNL1       -0.2106
      5 C         137.6080  140.0516  159.7098 C.ar    1  UNL1        0.1036
      6 C         138.0224  140.7768  160.9556 C.ar    1  UNL1        0.0399
      7 C         138.4960  142.1977  160.8739 C.ar    1  UNL1        0.0845
      8 N         138.5553  142.8934  159.5464 N.ar    1  UNL1       -0.2264
      9 C         138.1409  142.1681  158.3005 C.ar    1  UNL1        0.1652
     10 C         139.2536  146.6293  155.2518 C.ar    1  UNL1        0.1057
     11 C         137.9783  145.9807  154.8014 C.ar    1  UNL1        0.0183
     12 C         137.5912  144.6346  155.3382 C.ar    1  UNL1        0.0015
     13 C         138.4793  143.9371  156.3253 C.ar    1  UNL1        0.0046
     14 C         139.7548  144.5857  156.7757 C.ar    1  UNL1        0.0015
     15 C         140.1418  145.9318  156.2389 C.ar    1  UNL1        0.0183
     16 C         140.0278  149.3214  154.1781 C.3     1  UNL1        0.1816
     17 S         139.6407  147.9754  154.7150 S.O2    1  UNL1        0.0104
     18 O         140.4846  147.3143  153.6658 O.2     1  UNL1       -0.1686
     19 O         138.7967  148.6365  155.7641 O.2     1  UNL1       -0.1686
     20 C         138.9104  142.9230  162.1199 C.ar    1  UNL1        0.0190
     21 C         137.9055  143.7299  162.8874 C.ar    1  UNL1        0.0016
     22 C         138.3199  144.4552  164.1333 C.ar    1  UNL1        0.0014
     23 C         139.7392  144.3734  164.6118 C.ar    1  UNL1        0.0183
     24 C         140.7441  143.5664  163.8443 C.ar    1  UNL1        0.1056
     25 C         140.3297  142.8412  162.5984 C.ar    1  UNL1        0.0198
     26 S         142.1634  143.4846  164.3228 S.O2    1  UNL1        0.0070
     27 O         142.6224  144.1918  163.0821 O.2     1  UNL1       -0.1687
     28 O         141.7044  142.7774  165.5634 O.2     1  UNL1       -0.1687
     29 C         143.5827  143.4029  164.8012 C.3     1  UNL1        0.1339
     30 C         144.9178  142.7193  164.7963 C.3     1  UNL1        0.0257
     31 C         144.7057  143.9448  165.6349 C.3     1  UNL1        0.0257
@<TRIPOS>BOND
     1    16    17    1
     2    17    18    2
     3    17    19    2
     4    17    10    1
     5    10    11   ar
     6    11    12   ar
     7    12    13   ar
     8    13     1    1
     9     1     2   ar
    10     2     3   ar
    11     3     4   ar
    12     4     5   ar
    13     5     6   ar
    14     6     7   ar
    15     7    20    1
    16    20    21   ar
    17    21    22   ar
    18    22    23   ar
    19    23    24   ar
    20    24    26    1
    21    26    27    2
    22    26    28    2
    23    26    29    1
    24    29    30    1
    25    30    31    1
    26    24    25   ar
    27     7     8   ar
    28     8     9   ar
    29    13    14   ar
    30    14    15   ar
    31    15    10   ar
    32     9     1   ar
    33     9     4   ar
    34    25    20   ar
    35    31    29    1
@<TRIPOS>MOLECULE
*****
 31 35 0 0 0
SMALL
GASTEIGER

@<TRIPOS>ATOM
      1 C         142.2211  138.6204  158.4658 C.ar    1  UNL1        0.0567
      2 C         142.4298  139.9411  157.7861 C.ar    1  UNL1        0.1236
      3 N         143.1196  139.6857  156.4788 N.ar    1  UNL1       -0.1621
      4 N         143.3371  138.2071  156.3506 N.ar    1  UNL1       -0.2106
      5 C         143.9691  137.3753  155.2742 C.ar    1  UNL1        0.1036
      6 C         144.0457  135.8850  155.4259 C.ar    1  UNL1        0.0399
      7 C         143.4904  135.2265  156.6539 C.ar    1  UNL1        0.0845
      8 N         142.8584  136.0584  157.7303 N.ar    1  UNL1       -0.2264
      9 C         142.7818  137.5487  157.5786 C.ar    1  UNL1        0.1652
     10 C         140.2574  137.9846  162.4645 C.ar    1  UNL1        0.1057
     11 C         139.4250  138.3390  161.2681 C.ar    1  UNL1        0.0183
     12 C         140.0796  138.5509  159.9352 C.ar    1  UNL1        0.0015
     13 C         141.5665  138.4084  159.7987 C.ar    1  UNL1        0.0046
     14 C         142.3989  138.0540  160.9952 C.ar    1  UNL1        0.0015
     15 C         141.7443  137.8421  162.3281 C.ar    1  UNL1        0.0183
     16 C         138.9481  137.5608  165.1302 C.3     1  UNL1        0.1816
     17 S         139.6028  137.7726  163.7974 S.O2    1  UNL1        0.0104
     18 O         138.3833  138.5002  163.3141 O.2     1  UNL1       -0.1686
     19 O         140.8223  137.0451  164.2807 O.2     1  UNL1       -0.1686
     20 C         143.5671  133.7361  156.8056 C.ar    1  UNL1        0.0190
     21 C         144.6000  133.1260  157.7060 C.ar    1  UNL1        0.0016
     22 C         144.6766  131.6356  157.8577 C.ar    1  UNL1        0.0014
     23 C         143.7204  130.7554  157.1089 C.ar    1  UNL1        0.0183
     24 C         142.6874  131.3656  156.2084 C.ar    1  UNL1        0.1056
     25 C         142.6108  132.8559  156.0568 C.ar    1  UNL1        0.0198
     26 S         141.7311  130.4854  155.4595 S.O2    1  UNL1        0.0070
     27 O         142.5309  129.2797  155.8555 O.2     1  UNL1       -0.1687
     28 O         140.9314  131.6910  155.0636 O.2     1  UNL1       -0.1687
     29 C         140.7749  129.6051  154.7107 C.3     1  UNL1        0.1339
     30 C         140.1037  129.2117  153.4283 C.3     1  UNL1        0.0257
     31 C         139.7898  128.4740  154.6961 C.3     1  UNL1        0.0257
@<TRIPOS>BOND
     1    16    17    1
     2    17    18    2
     3    17    19    2
     4    17    10    1
     5    10    11   ar
     6    11    12   ar
     7    12    13   ar
     8    13     1    1
     9     1     2   ar
    10     2     3   ar
    11     3     4   ar
    12     4     5   ar
    13     5     6   ar
    14     6     7   ar
    15     7    20    1
    16    20    21   ar
    17    21    22   ar
    18    22    23   ar
    19    23    24   ar
    20    24    26    1
    21    26    27    2
    22    26    28    2
    23    26    29    1
    24    29    30    1
    25    30    31    1
    26    24    25   ar
    27     7     8   ar
    28     8     9   ar
    29    13    14   ar
    30    14    15   ar
    31    15    10   ar
    32     9     1   ar
    33     9     4   ar
    34    25    20   ar
    35    31    29    1
@<TRIPOS>MOLECULE
*****
 31 35 0 0 0
SMALL
GASTEIGER

@<TRIPOS>ATOM
      1 C         140.4672  143.2008  160.1513 C.ar    1  UNL1        0.0567
      2 C         140.3611  144.5785  159.5677 C.ar    1  UNL1        0.1236
      3 N         139.7988  145.4862  160.6212 N.ar    1  UNL1       -0.1621
      4 N         139.5574  144.6694  161.8560 N.ar    1  UNL1       -0.2106
      5 C         139.0147  145.0294  163.2072 C.ar    1  UNL1        0.1036
      6 C         138.8852  143.9769  164.2681 C.ar    1  UNL1        0.0399
      7 C         139.2982  142.5644  163.9777 C.ar    1  UNL1        0.0845
      8 N         139.8409  142.2045  162.6264 N.ar    1  UNL1       -0.2264
      9 C         139.9704  143.2570  161.5656 C.ar    1  UNL1        0.1652
     10 C         142.0054  139.5414  158.0317 C.ar    1  UNL1        0.1057
     11 C         142.9482  140.4068  158.8141 C.ar    1  UNL1        0.0183
     12 C         142.4354  141.6265  159.5207 C.ar    1  UNL1        0.0015
     13 C         140.9799  141.9810  159.4448 C.ar    1  UNL1        0.0046
     14 C         140.0371  141.1156  158.6622 C.ar    1  UNL1        0.0015
     15 C         140.5498  139.8958  157.9557 C.ar    1  UNL1        0.0183
     16 C         143.0308  137.1018  156.6186 C.3     1  UNL1        0.1816
     17 S         142.5182  138.3216  157.3251 S.O2    1  UNL1        0.0104
     18 O         141.1833  137.6598  157.4990 O.2     1  UNL1       -0.1686
     19 O         143.8530  138.9834  157.1513 O.2     1  UNL1       -0.1686
     20 C         139.1687  141.5119  165.0386 C.ar    1  UNL1        0.0190
     21 C         138.1884  140.3898  164.8660 C.ar    1  UNL1        0.0016
     22 C         138.0588  139.3372  165.9269 C.ar    1  UNL1        0.0014
     23 C         138.9095  139.4070  167.1604 C.ar    1  UNL1        0.0183
     24 C         139.8898  140.5292  167.3330 C.ar    1  UNL1        0.1056
     25 C         140.0194  141.5817  166.2721 C.ar    1  UNL1        0.0198
     26 S         140.7405  140.5989  168.5664 S.O2    1  UNL1        0.0070
     27 O         139.7742  139.7033  169.2835 O.2     1  UNL1       -0.1687
     28 O         141.7068  141.4946  167.8494 O.2     1  UNL1       -0.1687
     29 C         141.5912  140.6687  169.7999 C.3     1  UNL1        0.1339
     30 C         141.8741  141.2547  171.1514 C.3     1  UNL1        0.0257
     31 C         142.7818  140.2035  170.5848 C.3     1  UNL1        0.0257
@<TRIPOS>BOND
     1    16    17    1
     2    17    18    2
     3    17    19    2
     4    17    10    1
     5    10    11   ar
     6    11    12   ar
     7    12    13   ar
     8    13     1    1
     9     1     2   ar
    10     2     3   ar
    11     3     4   ar
    12     4     5   ar
    13     5     6   ar
    14     6     7   ar
    15     7    20    1
    16    20    21   ar
    17    21    22   ar
    18    22    23   ar
    19    23    24   ar
    20    24    26    1
    21    26    27    2
    22    26    28    2
    23    26    29    1
    24    29    30    1
    25    30    31    1
    26    24    25   ar
    27     7     8   ar
    28     8     9   ar
    29    13    14   ar
    30    14    15   ar
    31    15    10   ar
    32     9     1   ar
    33     9     4   ar
    34    25    20   ar
    35    31    29    1
@<TRIPOS>MOLECULE
*****
 31 35 0 0 0
SMALL
GASTEIGER

@<TRIPOS>ATOM
      1 C         135.0369  140.7970  155.0850 C.ar    1  UNL1        0.0567
      2 C         135.2709  141.1840  153.6548 C.ar    1  UNL1        0.1236
      3 N         136.7277  141.5031  153.4934 N.ar    1  UNL1       -0.1621
      4 N         137.3940  141.3133  154.8238 N.ar    1  UNL1       -0.2106
      5 C         138.8172  141.4815  155.2666 C.ar    1  UNL1        0.1036
      6 C         139.1955  141.2132  156.6931 C.ar    1  UNL1        0.0399
      7 C         138.1505  140.7768  157.6768 C.ar    1  UNL1        0.0845
      8 N         136.7273  140.6086  157.2340 N.ar    1  UNL1       -0.2264
      9 C         136.3491  140.8769  155.8075 C.ar    1  UNL1        0.1652
     10 C         131.0912  139.6055  156.8911 C.ar    1  UNL1        0.1057
     11 C         132.2974  138.7346  157.0828 C.ar    1  UNL1        0.0183
     12 C         133.6126  139.1318  156.4807 C.ar    1  UNL1        0.0015
     13 C         133.7217  140.3998  155.6870 C.ar    1  UNL1        0.0046
     14 C         132.5155  141.2708  155.4954 C.ar    1  UNL1        0.0015
     15 C         131.2003  140.8736  156.0974 C.ar    1  UNL1        0.0183
     16 C         128.4608  138.8112  158.0951 C.3     1  UNL1        0.1816
     17 S         129.7760  139.2083  157.4932 S.O2    1  UNL1        0.0104
     18 O         129.0618  140.0994  156.5206 O.2     1  UNL1       -0.1686
     19 O         130.4903  138.3172  158.4657 O.2     1  UNL1       -0.1686
     20 C         138.5289  140.5085  159.1033 C.ar    1  UNL1        0.0190
     21 C         139.0033  139.1448  159.5097 C.ar    1  UNL1        0.0016
     22 C         139.3817  138.8766  160.9362 C.ar    1  UNL1        0.0014
     23 C         139.2855  139.9721  161.9563 C.ar    1  UNL1        0.0183
     24 C         138.8111  141.3358  161.5499 C.ar    1  UNL1        0.1056
     25 C         138.4327  141.6040  160.1234 C.ar    1  UNL1        0.0198
     26 S         138.7149  142.4313  162.5700 S.O2    1  UNL1        0.0070
     27 O         139.6518  141.6781  163.4672 O.2     1  UNL1       -0.1687
     28 O         137.7780  143.1845  161.6729 O.2     1  UNL1       -0.1687
     29 C         138.6188  143.5268  163.5901 C.3     1  UNL1        0.1339
     30 C         137.8464  144.2436  164.6577 C.3     1  UNL1        0.0257
     31 C         139.2246  144.7074  164.2895 C.3     1  UNL1        0.0257
@<TRIPOS>BOND
     1    16    17    1
     2    17    18    2
     3    17    19    2
     4    17    10    1
     5    10    11   ar
     6    11    12   ar
     7    12    13   ar
     8    13     1    1
     9     1     2   ar
    10     2     3   ar
    11     3     4   ar
    12     4     5   ar
    13     5     6   ar
    14     6     7   ar
    15     7    20    1
    16    20    21   ar
    17    21    22   ar
    18    22    23   ar
    19    23    24   ar
    20    24    26    1
    21    26    27    2
    22    26    28    2
    23    26    29    1
    24    29    30    1
    25    30    31    1
    26    24    25   ar
    27     7     8   ar
    28     8     9   ar
    29    13    14   ar
    30    14    15   ar
    31    15    10   ar
    32     9     1   ar
    33     9     4   ar
    34    25    20   ar
    35    31    29    1
@<TRIPOS>MOLECULE
*****
 31 35 0 0 0
SMALL
GASTEIGER

@<TRIPOS>ATOM
      1 C         142.2288  139.6712  159.9952 C.ar    1  UNL1        0.0567
      2 C         143.6123  139.5107  159.4384 C.ar    1  UNL1        0.1236
      3 N         144.5266  139.1402  160.5683 N.ar    1  UNL1       -0.1621
      4 N         143.7081  139.0717  161.8235 N.ar    1  UNL1       -0.2106
      5 C         144.0725  138.7529  163.2432 C.ar    1  UNL1        0.1036
      6 C         143.0168  138.7624  164.3087 C.ar    1  UNL1        0.0399
      7 C         141.5966  139.0906  163.9544 C.ar    1  UNL1        0.0845
      8 N         141.2322  139.4094  162.5348 N.ar    1  UNL1       -0.2264
      9 C         142.2880  139.3999  161.4693 C.ar    1  UNL1        0.1652
     10 C         138.5468  140.7733  157.6545 C.ar    1  UNL1        0.1057
     11 C         139.2252  139.4580  157.4101 C.ar    1  UNL1        0.0183
     12 C         140.4525  139.0907  158.1903 C.ar    1  UNL1        0.0015
     13 C         141.0015  140.0386  159.2150 C.ar    1  UNL1        0.0046
     14 C         140.3231  141.3540  159.4594 C.ar    1  UNL1        0.0015
     15 C         139.0958  141.7213  158.6792 C.ar    1  UNL1        0.0183
     16 C         136.0923  141.5079  156.0940 C.3     1  UNL1        0.1816
     17 S         137.3195  141.1407  156.8742 S.O2    1  UNL1        0.0104
     18 O         137.3302  139.7900  156.2217 O.2     1  UNL1       -0.1686
     19 O         137.3089  142.4913  157.5268 O.2     1  UNL1       -0.1686
     20 C         140.5409  139.1000  165.0200 C.ar    1  UNL1        0.0190
     21 C         139.2900  138.2913  164.8436 C.ar    1  UNL1        0.0016
     22 C         138.2342  138.3007  165.9092 C.ar    1  UNL1        0.0014
     23 C         138.4294  139.1189  167.1511 C.ar    1  UNL1        0.0183
     24 C         139.6804  139.9277  167.3275 C.ar    1  UNL1        0.1056
     25 C         140.7360  139.9183  166.2619 C.ar    1  UNL1        0.0198
     26 S         139.8755  140.7460  168.5694 S.O2    1  UNL1        0.0070
     27 O         140.8535  141.6191  167.8404 O.2     1  UNL1       -0.1687
     28 O         138.8976  139.8729  169.2983 O.2     1  UNL1       -0.1687
     29 C         140.0707  141.5642  169.8113 C.3     1  UNL1        0.1339
     30 C         139.6736  142.7198  170.6813 C.3     1  UNL1        0.0257
     31 C         140.8059  141.8259  171.0923 C.3     1  UNL1        0.0257
@<TRIPOS>BOND
     1    16    17    1
     2    17    18    2
     3    17    19    2
     4    17    10    1
     5    10    11   ar
     6    11    12   ar
     7    12    13   ar
     8    13     1    1
     9     1     2   ar
    10     2     3   ar
    11     3     4   ar
    12     4     5   ar
    13     5     6   ar
    14     6     7   ar
    15     7    20    1
    16    20    21   ar
    17    21    22   ar
    18    22    23   ar
    19    23    24   ar
    20    24    26    1
    21    26    27    2
    22    26    28    2
    23    26    29    1
    24    29    30    1
    25    30    31    1
    26    24    25   ar
    27     7     8   ar
    28     8     9   ar
    29    13    14   ar
    30    14    15   ar
    31    15    10   ar
    32     9     1   ar
    33     9     4   ar
    34    25    20   ar
    35    31    29    1
@<TRIPOS>MOLECULE
*****
 31 35 0 0 0
SMALL
GASTEIGER

@<TRIPOS>ATOM
      1 C         140.9416  137.1394  155.4859 C.ar    1  UNL1        0.0567
      2 C         140.7991  137.6382  154.0784 C.ar    1  UNL1        0.1236
      3 N         140.0249  138.9224  154.1180 N.ar    1  UNL1       -0.1621
      4 N         139.6889  139.2172  155.5498 N.ar    1  UNL1       -0.2106
      5 C         138.9403  140.3468  156.1930 C.ar    1  UNL1        0.1036
      6 C         138.7583  140.3743  157.6816 C.ar    1  UNL1        0.0399
      7 C         139.3248  139.2724  158.5271 C.ar    1  UNL1        0.0845
      8 N         140.0734  138.1429  157.8839 N.ar    1  UNL1       -0.2264
      9 C         140.2555  138.1153  156.3952 C.ar    1  UNL1        0.1652
     10 C         143.0561  133.3760  156.7570 C.ar    1  UNL1        0.1057
     11 C         143.4384  134.6930  157.3649 C.ar    1  UNL1        0.0183
     12 C         142.7335  135.9474  156.9412 C.ar    1  UNL1        0.0015
     13 C         141.6464  135.8850  155.9096 C.ar    1  UNL1        0.0046
     14 C         141.2641  134.5680  155.3017 C.ar    1  UNL1        0.0015
     15 C         141.9690  133.3135  155.7254 C.ar    1  UNL1        0.0183
     16 C         144.4659  130.8673  157.6045 C.3     1  UNL1        0.1816
     17 S         143.7610  132.1216  157.1808 S.O2    1  UNL1        0.0104
     18 O         144.8240  132.9440  157.8470 O.2     1  UNL1       -0.1686
     19 O         142.6980  131.2992  156.5145 O.2     1  UNL1       -0.1686
     20 C         139.1428  139.3000  160.0158 C.ar    1  UNL1        0.0190
     21 C         139.1016  138.0162  160.7903 C.ar    1  UNL1        0.0016
     22 C         138.9195  138.0438  162.2790 C.ar    1  UNL1        0.0014
     23 C         138.7786  139.3554  162.9931 C.ar    1  UNL1        0.0183
     24 C         138.8198  140.6393  162.2185 C.ar    1  UNL1        0.1056
     25 C         139.0018  140.6116  160.7299 C.ar    1  UNL1        0.0198
     26 S         138.6789  141.9508  162.9326 S.O2    1  UNL1        0.0070
     27 O         137.5481  142.3256  162.0211 O.2     1  UNL1       -0.1687
     28 O         139.8097  141.5760  163.8441 O.2     1  UNL1       -0.1687
     29 C         138.5379  143.2624  163.6467 C.3     1  UNL1        0.1339
     30 C         138.9489  144.6936  163.8279 C.3     1  UNL1        0.0257
     31 C         137.8829  144.1029  164.7024 C.3     1  UNL1        0.0257
@<TRIPOS>BOND
     1    16    17    1
     2    17    18    2
     3    17    19    2
     4    17    10    1
     5    10    11   ar
     6    11    12   ar
     7    12    13   ar
     8    13     1    1
     9     1     2   ar
    10     2     3   ar
    11     3     4   ar
    12     4     5   ar
    13     5     6   ar
    14     6     7   ar
    15     7    20    1
    16    20    21   ar
    17    21    22   ar
    18    22    23   ar
    19    23    24   ar
    20    24    26    1
    21    26    27    2
    22    26    28    2
    23    26    29    1
    24    29    30    1
    25    30    31    1
    26    24    25   ar
    27     7     8   ar
    28     8     9   ar
    29    13    14   ar
    30    14    15   ar
    31    15    10   ar
    32     9     1   ar
    33     9     4   ar
    34    25    20   ar
    35    31    29    1
@<TRIPOS>MOLECULE
*****
 31 35 0 0 0
SMALL
GASTEIGER

@<TRIPOS>ATOM
      1 C         138.8305  142.7292  164.0566 C.ar    1  UNL1        0.0567
      2 C         137.9127  143.9035  163.8870 C.ar    1  UNL1        0.1236
      3 N         137.7338  144.1435  162.4172 N.ar    1  UNL1       -0.1621
      4 N         138.5411  143.1176  161.6784 N.ar    1  UNL1       -0.2106
      5 C         138.7465  142.8664  160.2139 C.ar    1  UNL1        0.1036
      6 C         139.6297  141.7411  159.7627 C.ar    1  UNL1        0.0399
      7 C         140.3075  140.8671  160.7759 C.ar    1  UNL1        0.0845
      8 N         140.1021  141.1182  162.2403 N.ar    1  UNL1       -0.2264
      9 C         139.2189  142.2435  162.6916 C.ar    1  UNL1        0.1652
     10 C         140.1818  140.9721  167.9728 C.ar    1  UNL1        0.1057
     11 C         139.4086  140.1314  167.0006 C.ar    1  UNL1        0.0183
     12 C         138.9582  140.7171  165.6952 C.ar    1  UNL1        0.0015
     13 C         139.2809  142.1435  165.3620 C.ar    1  UNL1        0.0046
     14 C         140.0542  142.9843  166.3343 C.ar    1  UNL1        0.0015
     15 C         140.5046  142.3985  167.6397 C.ar    1  UNL1        0.0183
     16 C         141.0825  139.8006  170.5836 C.3     1  UNL1        0.1816
     17 S         140.6322  140.3864  169.2782 S.O2    1  UNL1        0.0104
     18 O         139.2410  139.8871  169.5341 O.2     1  UNL1       -0.1686
     19 O         142.0234  140.8856  169.0222 O.2     1  UNL1       -0.1686
     20 C         141.1908  139.7418  160.3246 C.ar    1  UNL1        0.0190
     21 C         142.1968  139.1530  161.2686 C.ar    1  UNL1        0.0016
     22 C         143.0800  138.0277  160.8173 C.ar    1  UNL1        0.0014
     23 C         142.9572  137.4912  159.4219 C.ar    1  UNL1        0.0183
     24 C         141.9511  138.0800  158.4778 C.ar    1  UNL1        0.1056
     25 C         141.0679  139.2052  158.9292 C.ar    1  UNL1        0.0198
     26 S         141.8283  137.5435  157.0825 S.O2    1  UNL1        0.0070
     27 O         143.3222  137.4471  156.9880 O.2     1  UNL1       -0.1687
     28 O         140.3344  137.6399  157.1769 O.2     1  UNL1       -0.1687
     29 C         141.7054  137.0070  155.6871 C.3     1  UNL1        0.1339
     30 C         140.9554  136.2054  154.6649 C.3     1  UNL1        0.0257
     31 C         142.2427  136.8793  154.2925 C.3     1  UNL1        0.0257
@<TRIPOS>BOND
     1    16    17    1
     2    17    18    2
     3    17    19    2
     4    17    10    1
     5    10    11   ar
     6    11    12   ar
     7    12    13   ar
     8    13     1    1
     9     1     2   ar
    10     2     3   ar
    11     3     4   ar
    12     4     5   ar
    13     5     6   ar
    14     6     7   ar
    15     7    20    1
    16    20    21   ar
    17    21    22   ar
    18    22    23   ar
    19    23    24   ar
    20    24    26    1
    21    26    27    2
    22    26    28    2
    23    26    29    1
    24    29    30    1
    25    30    31    1
    26    24    25   ar
    27     7     8   ar
    28     8     9   ar
    29    13    14   ar
    30    14    15   ar
    31    15    10   ar
    32     9     1   ar
    33     9     4   ar
    34    25    20   ar
    35    31    29    1
