@<TRIPOS>MOLECULE
*****
 30 33 0 0 0
SMALL
GASTEIGER

@<TRIPOS>ATOM
      1 C         139.7058  139.8806  166.9856 C.3     1  UNL1        0.0851
      2 C         138.3892  139.3570  167.4778 C.3     1  UNL1        0.0096
      3 C         137.7445  138.1875  166.7946 C.3     1  UNL1        0.0005
      4 C         138.4165  137.5417  165.6193 C.3     1  UNL1        0.0005
      5 C         139.7331  138.0653  165.1272 C.3     1  UNL1        0.0096
      6 C         140.3778  139.2348  165.8103 C.3     1  UNL1        0.0853
      7 C         141.6945  139.7585  165.3181 C.2     1  UNL1        0.2257
      8 O         142.9620  139.3885  166.0297 O.2     1  UNL1       -0.2749
      9 N         141.7435  140.6522  164.1144 N.am    1  UNL1       -0.2760
     10 C         140.4758  141.0222  163.4029 C.3     1  UNL1        0.1148
     11 C         140.5249  141.9159  162.1992 C.3     1  UNL1        0.1123
     12 N         141.8415  142.4396  161.7070 N.pl3   1  UNL1       -0.3041
     13 C         143.1091  142.0696  162.4186 C.3     1  UNL1        0.1123
     14 C         143.0601  141.1759  163.6223 C.3     1  UNL1        0.1148
     15 C         141.8906  143.3333  160.5033 C.ar    1  UNL1        0.0481
     16 C         140.9909  144.5307  160.4211 C.ar    1  UNL1        0.0168
     17 C         141.0399  145.4244  159.2174 C.ar    1  UNL1        0.0309
     18 C         141.9886  145.1207  158.0959 C.ar    1  UNL1        0.1402
     19 F         142.0377  146.0144  156.8922 F       1  UNL1       -0.2042
     20 C         142.8883  143.9232  158.1782 C.ar    1  UNL1        0.0309
     21 C         142.8392  143.0295  159.3819 C.ar    1  UNL1        0.0168
     22 N         140.9794  140.8765  169.0194 N.am    1  UNL1       -0.2959
     23 C         140.3505  141.0501  167.6688 C.2     1  UNL1        0.2231
     24 O         140.3662  142.3933  167.0012 O.2     1  UNL1       -0.2751
     25 H         140.9691  139.9949  169.4575 H       1  UNL1        0.1502
     26 C         141.6242  142.0460  169.7025 C.3     1  UNL1        0.1364
     27 C         142.6796  143.0222  170.1303 C.3     1  UNL1        0.0353
     28 C         143.0309  141.8955  169.2043 C.3     1  UNL1        0.0353
     29 N         139.2581  143.1589  171.1733 N.1     1  UNL1       -0.1943
     30 C         140.4412  142.6025  170.4379 C.1     1  UNL1        0.0896
@<TRIPOS>BOND
     1    29    30    3
     2    30    26    1
     3    26    22    1
     4    22    23   am
     5    23    24    2
     6     1    23    1
     7     1     2    1
     8     2     3    1
     9     3     4    1
    10     4     5    1
    11     5     6    1
    12     6     7    1
    13     7     8    2
    14     7     9   am
    15     9    10    1
    16    10    11    1
    17    11    12    1
    18    12    15    1
    19    15    16   ar
    20    16    17   ar
    21    17    18   ar
    22    18    19    1
    23    18    20   ar
    24    20    21   ar
    25    12    13    1
    26    13    14    1
    27    26    27    1
    28    27    28    1
    29    28    26    1
    30     6     1    1
    31    14     9    1
    32    21    15   ar
    33    22    25    1
@<TRIPOS>MOLECULE
*****
 30 33 0 0 0
SMALL
GASTEIGER

@<TRIPOS>ATOM
      1 C         140.0600  142.3283  165.2752 C.3     1  UNL1        0.0851
      2 C         140.1124  143.7830  165.6371 C.3     1  UNL1        0.0096
      3 C         138.9276  144.6645  165.3738 C.3     1  UNL1        0.0005
      4 C         137.6905  144.0912  164.7486 C.3     1  UNL1        0.0005
      5 C         137.6381  142.6365  164.3866 C.3     1  UNL1        0.0096
      6 C         138.8229  141.7550  164.6499 C.3     1  UNL1        0.0853
      7 C         138.7705  140.3003  164.2880 C.2     1  UNL1        0.2257
      8 O         138.2208  139.3036  165.2650 O.2     1  UNL1       -0.2749
      9 N         139.2679  139.8422  162.9491 N.am    1  UNL1       -0.2760
     10 C         139.8177  140.8389  161.9721 C.3     1  UNL1        0.1148
     11 C         140.3151  140.3808  160.6332 C.3     1  UNL1        0.1123
     12 N         140.2628  138.9260  160.2712 N.pl3   1  UNL1       -0.3041
     13 C         139.7130  137.9294  161.2482 C.3     1  UNL1        0.1123
     14 C         139.2156  138.3875  162.5871 C.3     1  UNL1        0.1148
     15 C         140.7602  138.4679  158.9323 C.ar    1  UNL1        0.0481
     16 C         142.2147  138.1558  158.7392 C.ar    1  UNL1        0.0168
     17 C         142.7121  137.6977  157.4003 C.ar    1  UNL1        0.0309
     18 C         141.7551  137.5517  156.2545 C.ar    1  UNL1        0.1402
     19 F         142.2525  137.0936  154.9156 F       1  UNL1       -0.2042
     20 C         140.3007  137.8638  156.4476 C.ar    1  UNL1        0.0309
     21 C         139.8033  138.3219  157.7865 C.ar    1  UNL1        0.0168
     22 N         141.0803  140.1884  166.3382 N.am    1  UNL1       -0.2959
     23 C         141.2447  141.4467  165.5385 C.2     1  UNL1        0.2231
     24 O         142.5939  141.8236  165.0021 O.2     1  UNL1       -0.2751
     25 H         140.1948  139.9411  166.6903 H       1  UNL1        0.1502
     26 C         142.2651  139.3069  166.6016 C.3     1  UNL1        0.1364
     27 C         143.3212  138.2635  166.3868 C.3     1  UNL1        0.0353
     28 C         142.3060  138.5348  165.3162 C.3     1  UNL1        0.0353
     29 N         143.0059  140.2389  169.3552 N.1     1  UNL1       -0.1943
     30 C         142.6355  139.7730  167.9783 C.1     1  UNL1        0.0896
@<TRIPOS>BOND
     1    29    30    3
     2    30    26    1
     3    26    22    1
     4    22    23   am
     5    23    24    2
     6     1    23    1
     7     1     2    1
     8     2     3    1
     9     3     4    1
    10     4     5    1
    11     5     6    1
    12     6     7    1
    13     7     8    2
    14     7     9   am
    15     9    10    1
    16    10    11    1
    17    11    12    1
    18    12    15    1
    19    15    16   ar
    20    16    17   ar
    21    17    18   ar
    22    18    19    1
    23    18    20   ar
    24    20    21   ar
    25    12    13    1
    26    13    14    1
    27    26    27    1
    28    27    28    1
    29    28    26    1
    30     6     1    1
    31    14     9    1
    32    21    15   ar
    33    22    25    1
@<TRIPOS>MOLECULE
*****
 30 33 0 0 0
SMALL
GASTEIGER

@<TRIPOS>ATOM
      1 C         139.4498  141.4733  165.5431 C.3     1  UNL1        0.0851
      2 C         139.9288  141.1535  166.9281 C.3     1  UNL1        0.0096
      3 C         139.4359  139.9207  167.6261 C.3     1  UNL1        0.0005
      4 C         138.4639  139.0078  166.9392 C.3     1  UNL1        0.0005
      5 C         137.9848  139.3277  165.5542 C.3     1  UNL1        0.0096
      6 C         138.4778  140.5604  164.8562 C.3     1  UNL1        0.0853
      7 C         137.9988  140.8803  163.4711 C.2     1  UNL1        0.2257
      8 O         136.8565  141.8322  163.2738 O.2     1  UNL1       -0.2749
      9 N         138.6622  140.2483  162.2835 N.am    1  UNL1       -0.2760
     10 C         139.8046  139.2964  162.4809 C.3     1  UNL1        0.1148
     11 C         140.4680  138.6644  161.2932 C.3     1  UNL1        0.1123
     12 N         139.9889  138.9843  159.9082 N.pl3   1  UNL1       -0.3041
     13 C         138.8466  139.9362  159.7109 C.3     1  UNL1        0.1123
     14 C         138.1832  140.5682  160.8985 C.3     1  UNL1        0.1148
     15 C         140.6523  138.3523  158.7205 C.ar    1  UNL1        0.0481
     16 C         142.1356  138.1283  158.7210 C.ar    1  UNL1        0.0168
     17 C         142.7989  137.4963  157.5333 C.ar    1  UNL1        0.0309
     18 C         141.9791  137.0883  156.3453 C.ar    1  UNL1        0.1402
     19 F         142.6424  136.4563  155.1576 F       1  UNL1       -0.2042
     20 C         140.4959  137.3123  156.3449 C.ar    1  UNL1        0.0309
     21 C         139.8325  137.9443  157.5325 C.ar    1  UNL1        0.0168
     22 N         140.9944  142.5957  163.7811 N.am    1  UNL1       -0.2959
     23 C         139.9428  142.7061  164.8450 C.2     1  UNL1        0.2231
     24 O         139.3842  144.0492  165.2109 O.2     1  UNL1       -0.2751
     25 H         141.3610  141.7141  163.5410 H       1  UNL1        0.1502
     26 C         141.4873  143.8285  163.0830 C.3     1  UNL1        0.1364
     27 C         142.3353  145.0240  162.7642 C.3     1  UNL1        0.0353
     28 C         142.6809  144.1493  163.9329 C.3     1  UNL1        0.0353
     29 N         139.4423  144.0427  160.8984 N.1     1  UNL1       -0.1943
     30 C         140.4649  143.9356  161.9907 C.1     1  UNL1        0.0896
@<TRIPOS>BOND
     1    29    30    3
     2    30    26    1
     3    26    22    1
     4    22    23   am
     5    23    24    2
     6     1    23    1
     7     1     2    1
     8     2     3    1
     9     3     4    1
    10     4     5    1
    11     5     6    1
    12     6     7    1
    13     7     8    2
    14     7     9   am
    15     9    10    1
    16    10    11    1
    17    11    12    1
    18    12    15    1
    19    15    16   ar
    20    16    17   ar
    21    17    18   ar
    22    18    19    1
    23    18    20   ar
    24    20    21   ar
    25    12    13    1
    26    13    14    1
    27    26    27    1
    28    27    28    1
    29    28    26    1
    30     6     1    1
    31    14     9    1
    32    21    15   ar
    33    22    25    1
@<TRIPOS>MOLECULE
*****
 30 33 0 0 0
SMALL
GASTEIGER

@<TRIPOS>ATOM
      1 C         139.8618  141.1925  160.4555 C.3     1  UNL1        0.0851
      2 C         140.7314  141.6220  159.3113 C.3     1  UNL1        0.0096
      3 C         141.5190  140.6019  158.5439 C.3     1  UNL1        0.0005
      4 C         141.4371  139.1523  158.9206 C.3     1  UNL1        0.0005
      5 C         140.5674  138.7228  160.0648 C.3     1  UNL1        0.0096
      6 C         139.7798  139.7429  160.8323 C.3     1  UNL1        0.0853
      7 C         138.9101  139.3134  161.9765 C.2     1  UNL1        0.2257
      8 O         137.5636  138.7090  161.7094 O.2     1  UNL1       -0.2749
      9 N         139.3871  139.4884  163.3879 N.am    1  UNL1       -0.2760
     10 C         140.7337  140.0928  163.6549 C.3     1  UNL1        0.1148
     11 C         141.2107  140.2678  165.0663 C.3     1  UNL1        0.1123
     12 N         140.3410  139.8384  166.2106 N.pl3   1  UNL1       -0.3041
     13 C         138.9945  139.2339  165.9435 C.3     1  UNL1        0.1123
     14 C         138.5175  139.0590  164.5321 C.3     1  UNL1        0.1148
     15 C         140.8180  140.0133  167.6219 C.ar    1  UNL1        0.0481
     16 C         139.8259  140.0973  168.7439 C.ar    1  UNL1        0.0168
     17 C         140.3029  140.2723  170.1552 C.ar    1  UNL1        0.0309
     18 C         141.7719  140.3633  170.4446 C.ar    1  UNL1        0.1402
     19 F         142.2489  140.5383  171.8559 F       1  UNL1       -0.2042
     20 C         142.7639  140.2793  169.3226 C.ar    1  UNL1        0.0309
     21 C         142.2870  140.1043  167.9113 C.ar    1  UNL1        0.0168
     22 N         139.6713  142.8651  162.4344 N.am    1  UNL1       -0.2959
     23 C         139.0741  142.2126  161.2230 C.2     1  UNL1        0.2231
     24 O         137.6893  142.5801  160.7790 O.2     1  UNL1       -0.2751
     25 H         140.5802  142.6239  162.7258 H       1  UNL1        0.1502
     26 C         138.8836  143.8852  163.2019 C.3     1  UNL1        0.1364
     27 C         137.9991  144.4816  164.2564 C.3     1  UNL1        0.0353
     28 C         138.3312  143.0192  164.2951 C.3     1  UNL1        0.0353
     29 N         139.4413  146.3256  161.5486 N.1     1  UNL1       -0.1943
     30 C         139.1624  145.1054  162.3752 C.1     1  UNL1        0.0896
@<TRIPOS>BOND
     1    29    30    3
     2    30    26    1
     3    26    22    1
     4    22    23   am
     5    23    24    2
     6     1    23    1
     7     1     2    1
     8     2     3    1
     9     3     4    1
    10     4     5    1
    11     5     6    1
    12     6     7    1
    13     7     8    2
    14     7     9   am
    15     9    10    1
    16    10    11    1
    17    11    12    1
    18    12    15    1
    19    15    16   ar
    20    16    17   ar
    21    17    18   ar
    22    18    19    1
    23    18    20   ar
    24    20    21   ar
    25    12    13    1
    26    13    14    1
    27    26    27    1
    28    27    28    1
    29    28    26    1
    30     6     1    1
    31    14     9    1
    32    21    15   ar
    33    22    25    1
@<TRIPOS>MOLECULE
*****
 30 33 0 0 0
SMALL
GASTEIGER

@<TRIPOS>ATOM
      1 C         140.8799  140.6440  165.0488 C.3     1  UNL1        0.0851
      2 C         140.7086  139.1980  165.4086 C.3     1  UNL1        0.0096
      3 C         139.3325  138.6216  165.5637 C.3     1  UNL1        0.0005
      4 C         138.1277  139.4914  165.3590 C.3     1  UNL1        0.0005
      5 C         138.2989  140.9374  164.9992 C.3     1  UNL1        0.0096
      6 C         139.6750  141.5137  164.8441 C.3     1  UNL1        0.0853
      7 C         139.8464  142.9599  164.4842 C.2     1  UNL1        0.2257
      8 O         139.8424  144.0058  165.5593 O.2     1  UNL1       -0.2749
      9 N         140.0216  143.3600  163.0492 N.am    1  UNL1       -0.2760
     10 C         140.0256  142.3139  161.9741 C.3     1  UNL1        0.1148
     11 C         140.2008  142.7140  160.5391 C.3     1  UNL1        0.1123
     12 N         140.3721  144.1601  160.1792 N.pl3   1  UNL1       -0.3041
     13 C         140.3682  145.2061  161.2543 C.3     1  UNL1        0.1123
     14 C         140.1929  144.8060  162.6893 C.3     1  UNL1        0.1148
     15 C         140.5474  144.5602  158.7442 C.ar    1  UNL1        0.0481
     16 C         141.6071  145.5524  158.3663 C.ar    1  UNL1        0.0168
     17 C         141.7823  145.9525  156.9313 C.ar    1  UNL1        0.0309
     18 C         140.8979  145.3604  155.8742 C.ar    1  UNL1        0.1402
     19 F         141.0732  145.7605  154.4392 F       1  UNL1       -0.2042
     20 C         139.8383  144.3683  156.2522 C.ar    1  UNL1        0.0309
     21 C         139.6631  143.9682  157.6872 C.ar    1  UNL1        0.0168
     22 N         143.0130  141.0207  163.6141 N.am    1  UNL1       -0.2959
     23 C         142.2561  141.2204  164.8936 C.2     1  UNL1        0.2231
     24 O         142.8752  141.9966  166.0180 O.2     1  UNL1       -0.2751
     25 H         142.6066  140.5113  162.8762 H       1  UNL1        0.1502
     26 C         144.3892  141.5971  163.4590 C.3     1  UNL1        0.1364
     27 C         145.8814  141.7251  163.5421 C.3     1  UNL1        0.0353
     28 C         145.2013  140.5060  164.0913 C.3     1  UNL1        0.0353
     29 N         143.7203  144.1795  162.0865 N.1     1  UNL1       -0.1943
     30 C         144.0548  142.8883  162.7728 C.1     1  UNL1        0.0896
@<TRIPOS>BOND
     1    29    30    3
     2    30    26    1
     3    26    22    1
     4    22    23   am
     5    23    24    2
     6     1    23    1
     7     1     2    1
     8     2     3    1
     9     3     4    1
    10     4     5    1
    11     5     6    1
    12     6     7    1
    13     7     8    2
    14     7     9   am
    15     9    10    1
    16    10    11    1
    17    11    12    1
    18    12    15    1
    19    15    16   ar
    20    16    17   ar
    21    17    18   ar
    22    18    19    1
    23    18    20   ar
    24    20    21   ar
    25    12    13    1
    26    13    14    1
    27    26    27    1
    28    27    28    1
    29    28    26    1
    30     6     1    1
    31    14     9    1
    32    21    15   ar
    33    22    25    1
@<TRIPOS>MOLECULE
*****
 30 33 0 0 0
SMALL
GASTEIGER

@<TRIPOS>ATOM
      1 C         141.7804  140.9473  159.4571 C.3     1  UNL1        0.0851
      2 C         141.3129  142.0034  158.5001 C.3     1  UNL1        0.0096
      3 C         142.2508  143.0906  158.0663 C.3     1  UNL1        0.0005
      4 C         143.6563  143.1216  158.5896 C.3     1  UNL1        0.0005
      5 C         144.1237  142.0655  159.5466 C.3     1  UNL1        0.0096
      6 C         143.1858  140.9783  159.9804 C.3     1  UNL1        0.0853
      7 C         143.6532  139.9221  160.9375 C.2     1  UNL1        0.2257
      8 O         144.3144  138.6796  160.4188 O.2     1  UNL1       -0.2749
      9 N         143.4595  140.1084  162.4132 N.am    1  UNL1       -0.2760
     10 C         142.7984  141.3510  162.9318 C.3     1  UNL1        0.1148
     11 C         142.6047  141.5374  164.4075 C.3     1  UNL1        0.1123
     12 N         143.0721  140.4812  165.3646 N.pl3   1  UNL1       -0.3041
     13 C         143.7333  139.2387  164.8460 C.3     1  UNL1        0.1123
     14 C         143.9270  139.0523  163.3703 C.3     1  UNL1        0.1148
     15 C         142.8784  140.6675  166.8403 C.ar    1  UNL1        0.0481
     16 C         142.9479  142.0415  167.4383 C.ar    1  UNL1        0.0168
     17 C         142.7542  142.2279  168.9140 C.ar    1  UNL1        0.0309
     18 C         142.4910  141.0402  169.7918 C.ar    1  UNL1        0.1402
     19 F         142.2973  141.2266  171.2675 F       1  UNL1       -0.2042
     20 C         142.4216  139.6664  169.1938 C.ar    1  UNL1        0.0309
     21 C         142.6153  139.4800  167.7181 C.ar    1  UNL1        0.0168
     22 N         140.0208  140.0301  161.1343 N.am    1  UNL1       -0.2959
     23 C         140.8424  139.8600  159.8910 C.2     1  UNL1        0.2231
     24 O         140.7261  138.6026  159.0814 O.2     1  UNL1       -0.2751
     25 H         140.0972  140.8554  161.6657 H       1  UNL1        0.1502
     26 C         139.0828  138.9429  161.5682 C.3     1  UNL1        0.1364
     27 C         137.8074  138.1808  161.7746 C.3     1  UNL1        0.0353
     28 C         137.7854  139.5017  161.0640 C.3     1  UNL1        0.0353
     29 N         141.0265  137.0702  162.8779 N.1     1  UNL1       -0.1943
     30 C         140.0547  138.0065  162.2230 C.1     1  UNL1        0.0896
@<TRIPOS>BOND
     1    29    30    3
     2    30    26    1
     3    26    22    1
     4    22    23   am
     5    23    24    2
     6     1    23    1
     7     1     2    1
     8     2     3    1
     9     3     4    1
    10     4     5    1
    11     5     6    1
    12     6     7    1
    13     7     8    2
    14     7     9   am
    15     9    10    1
    16    10    11    1
    17    11    12    1
    18    12    15    1
    19    15    16   ar
    20    16    17   ar
    21    17    18   ar
    22    18    19    1
    23    18    20   ar
    24    20    21   ar
    25    12    13    1
    26    13    14    1
    27    26    27    1
    28    27    28    1
    29    28    26    1
    30     6     1    1
    31    14     9    1
    32    21    15   ar
    33    22    25    1
@<TRIPOS>MOLECULE
*****
 30 33 0 0 0
SMALL
GASTEIGER

@<TRIPOS>ATOM
      1 C         138.5243  140.2705  163.9540 C.3     1  UNL1        0.0851
      2 C         138.6213  139.9209  165.4094 C.3     1  UNL1        0.0096
      3 C         138.8079  138.4922  165.8267 C.3     1  UNL1        0.0005
      4 C         138.8974  137.4132  164.7886 C.3     1  UNL1        0.0005
      5 C         138.8003  137.7629  163.3331 C.3     1  UNL1        0.0096
      6 C         138.6138  139.1915  162.9159 C.3     1  UNL1        0.0853
      7 C         138.5167  139.5412  161.4604 C.2     1  UNL1        0.2257
      8 O         137.1851  139.5169  160.7704 O.2     1  UNL1       -0.2749
      9 N         139.7513  139.9151  160.6950 N.am    1  UNL1       -0.2760
     10 C         141.0830  139.9394  161.3850 C.3     1  UNL1        0.1148
     11 C         142.3176  140.3133  160.6196 C.3     1  UNL1        0.1123
     12 N         142.2205  140.6630  159.1641 N.pl3   1  UNL1       -0.3041
     13 C         140.8889  140.6388  158.4741 C.3     1  UNL1        0.1123
     14 C         139.6543  140.2648  159.2395 C.3     1  UNL1        0.1148
     15 C         143.4552  141.0370  158.3987 C.ar    1  UNL1        0.0481
     16 C         143.8800  140.2195  157.2148 C.ar    1  UNL1        0.0168
     17 C         145.1147  140.5935  156.4494 C.ar    1  UNL1        0.0309
     18 C         145.9244  141.7849  156.8678 C.ar    1  UNL1        0.1402
     19 F         147.1590  142.1588  156.1024 F       1  UNL1       -0.2042
     20 C         145.4995  142.6022  158.0516 C.ar    1  UNL1        0.0309
     21 C         144.2649  142.2283  158.8170 C.ar    1  UNL1        0.0168
     22 N         139.4817  142.6644  163.6339 N.am    1  UNL1       -0.2959
     23 C         138.3377  141.6992  163.5367 C.2     1  UNL1        0.2231
     24 O         137.0071  142.1625  163.0221 O.2     1  UNL1       -0.2751
     25 H         140.3550  142.3603  163.9717 H       1  UNL1        0.1502
     26 C         139.2951  144.0931  163.2166 C.3     1  UNL1        0.1364
     27 C         139.2638  145.3150  162.3471 C.3     1  UNL1        0.0353
     28 C         139.6773  143.9938  161.7695 C.3     1  UNL1        0.0353
     29 N         138.4012  145.2840  165.8210 N.1     1  UNL1       -0.1943
     30 C         138.8481  144.6885  164.5188 C.1     1  UNL1        0.0896
@<TRIPOS>BOND
     1    29    30    3
     2    30    26    1
     3    26    22    1
     4    22    23   am
     5    23    24    2
     6     1    23    1
     7     1     2    1
     8     2     3    1
     9     3     4    1
    10     4     5    1
    11     5     6    1
    12     6     7    1
    13     7     8    2
    14     7     9   am
    15     9    10    1
    16    10    11    1
    17    11    12    1
    18    12    15    1
    19    15    16   ar
    20    16    17   ar
    21    17    18   ar
    22    18    19    1
    23    18    20   ar
    24    20    21   ar
    25    12    13    1
    26    13    14    1
    27    26    27    1
    28    27    28    1
    29    28    26    1
    30     6     1    1
    31    14     9    1
    32    21    15   ar
    33    22    25    1
@<TRIPOS>MOLECULE
*****
 30 33 0 0 0
SMALL
GASTEIGER

@<TRIPOS>ATOM
      1 C         140.5769  141.2600  159.9101 C.3     1  UNL1        0.0851
      2 C         141.7169  141.2615  158.9353 C.3     1  UNL1        0.0096
      3 C         142.3364  139.9654  158.5038 C.3     1  UNL1        0.0005
      4 C         141.8159  138.6678  159.0471 C.3     1  UNL1        0.0005
      5 C         140.6759  138.6662  160.0220 C.3     1  UNL1        0.0096
      6 C         140.0564  139.9624  160.4535 C.3     1  UNL1        0.0853
      7 C         138.9163  139.9609  161.4284 C.2     1  UNL1        0.2257
      8 O         137.5220  139.6809  160.9514 O.2     1  UNL1       -0.2749
      9 N         139.1706  140.2395  162.8802 N.am    1  UNL1       -0.2760
     10 C         140.5650  140.5195  163.3571 C.3     1  UNL1        0.1148
     11 C         140.8193  140.7981  164.8089 C.3     1  UNL1        0.1123
     12 N         139.6793  140.7966  165.7838 N.pl3   1  UNL1       -0.3041
     13 C         138.2850  140.5165  165.3068 C.3     1  UNL1        0.1123
     14 C         138.0307  140.2380  163.8550 C.3     1  UNL1        0.1148
     15 C         139.9336  141.0751  167.2356 C.ar    1  UNL1        0.0481
     16 C         139.5548  140.0589  168.2718 C.ar    1  UNL1        0.0168
     17 C         139.8091  140.3374  169.7236 C.ar    1  UNL1        0.0309
     18 C         140.4422  141.6323  170.1392 C.ar    1  UNL1        0.1402
     19 F         140.6965  141.9108  171.5910 F       1  UNL1       -0.2042
     20 C         140.8210  142.6485  169.1029 C.ar    1  UNL1        0.0309
     21 C         140.5667  142.3699  167.6511 C.ar    1  UNL1        0.0168
     22 N         140.6795  143.4477  161.3079 N.am    1  UNL1       -0.2959
     23 C         139.9573  142.5562  160.3417 C.2     1  UNL1        0.2231
     24 O         138.6155  142.9608  159.8069 O.2     1  UNL1       -0.2751
     25 H         141.5601  143.1821  161.6588 H       1  UNL1        0.1502
     26 C         140.0599  144.7438  161.7394 C.3     1  UNL1        0.1364
     27 C         139.6638  146.1905  161.7252 C.3     1  UNL1        0.0353
     28 C         140.4882  145.6275  160.6055 C.3     1  UNL1        0.0353
     29 N         138.7731  143.8767  164.3070 N.1     1  UNL1       -0.1943
     30 C         139.4165  144.3102  163.0232 C.1     1  UNL1        0.0896
@<TRIPOS>BOND
     1    29    30    3
     2    30    26    1
     3    26    22    1
     4    22    23   am
     5    23    24    2
     6     1    23    1
     7     1     2    1
     8     2     3    1
     9     3     4    1
    10     4     5    1
    11     5     6    1
    12     6     7    1
    13     7     8    2
    14     7     9   am
    15     9    10    1
    16    10    11    1
    17    11    12    1
    18    12    15    1
    19    15    16   ar
    20    16    17   ar
    21    17    18   ar
    22    18    19    1
    23    18    20   ar
    24    20    21   ar
    25    12    13    1
    26    13    14    1
    27    26    27    1
    28    27    28    1
    29    28    26    1
    30     6     1    1
    31    14     9    1
    32    21    15   ar
    33    22    25    1
@<TRIPOS>MOLECULE
*****
 30 33 0 0 0
SMALL
GASTEIGER

@<TRIPOS>ATOM
      1 C         140.9032  141.3820  167.4446 C.3     1  UNL1        0.0851
      2 C         140.3547  142.0201  168.6863 C.3     1  UNL1        0.0096
      3 C         141.2704  142.7577  169.6177 C.3     1  UNL1        0.0005
      4 C         142.7346  142.8571  169.3073 C.3     1  UNL1        0.0005
      5 C         143.2830  142.2190  168.0655 C.3     1  UNL1        0.0096
      6 C         142.3673  141.4815  167.1342 C.3     1  UNL1        0.0853
      7 C         142.9158  140.8433  165.8924 C.2     1  UNL1        0.2257
      8 O         143.6081  139.5152  165.9746 O.2     1  UNL1       -0.2749
      9 N         142.7719  141.5334  164.5683 N.am    1  UNL1       -0.2760
     10 C         142.0796  142.8616  164.4861 C.3     1  UNL1        0.1148
     11 C         141.9357  143.5516  163.1620 C.3     1  UNL1        0.1123
     12 N         142.4841  142.9135  161.9202 N.pl3   1  UNL1       -0.3041
     13 C         143.1764  141.5854  162.0024 C.3     1  UNL1        0.1123
     14 C         143.3203  140.8953  163.3265 C.3     1  UNL1        0.1148
     15 C         142.3402  143.6035  160.5961 C.ar    1  UNL1        0.0481
     16 C         141.3832  144.7490  160.4474 C.ar    1  UNL1        0.0168
     17 C         141.2393  145.4390  159.1234 C.ar    1  UNL1        0.0309
     18 C         142.0524  144.9836  157.9480 C.ar    1  UNL1        0.1402
     19 F         141.9085  145.6736  156.6239 F       1  UNL1       -0.2042
     20 C         143.0094  143.8381  158.0967 C.ar    1  UNL1        0.0309
     21 C         143.1533  143.1481  159.4207 C.ar    1  UNL1        0.0168
     22 N         140.0956  139.1544  166.3789 N.am    1  UNL1       -0.2959
     23 C         139.9875  140.6444  166.5131 C.2     1  UNL1        0.2231
     24 O         138.9636  141.3969  165.7160 O.2     1  UNL1       -0.2751
     25 H         140.7676  138.6605  166.9021 H       1  UNL1        0.1502
     26 C         139.1799  138.4168  165.4475 C.3     1  UNL1        0.1364
     27 C         138.6522  137.7952  164.1884 C.3     1  UNL1        0.0353
     28 C         139.9792  138.4948  164.1805 C.3     1  UNL1        0.0353
     29 N         136.9455  137.7486  167.3345 N.1     1  UNL1       -0.1943
     30 C         138.0628  138.0827  166.3910 C.1     1  UNL1        0.0896
@<TRIPOS>BOND
     1    29    30    3
     2    30    26    1
     3    26    22    1
     4    22    23   am
     5    23    24    2
     6     1    23    1
     7     1     2    1
     8     2     3    1
     9     3     4    1
    10     4     5    1
    11     5     6    1
    12     6     7    1
    13     7     8    2
    14     7     9   am
    15     9    10    1
    16    10    11    1
    17    11    12    1
    18    12    15    1
    19    15    16   ar
    20    16    17   ar
    21    17    18   ar
    22    18    19    1
    23    18    20   ar
    24    20    21   ar
    25    12    13    1
    26    13    14    1
    27    26    27    1
    28    27    28    1
    29    28    26    1
    30     6     1    1
    31    14     9    1
    32    21    15   ar
    33    22    25    1
