@<TRIPOS>MOLECULE
*****
 22 24 0 0 0
SMALL
GASTEIGER

@<TRIPOS>ATOM
      1 N         140.3883  141.4061  166.7091 N.pl3   1  UNL1       -0.3035
      2 C         139.5705  142.2902  165.8149 C.ar    1  UNL1        0.0481
      3 C         139.7845  143.7748  165.8289 C.ar    1  UNL1        0.0145
      4 C         138.9667  144.6589  164.9347 C.ar    1  UNL1        0.0013
      5 C         137.9349  144.0585  164.0266 C.ar    1  UNL1        0.0001
      6 C         137.7208  142.5738  164.0126 C.ar    1  UNL1        0.0013
      7 C         138.5386  141.6897  164.9067 C.ar    1  UNL1        0.0145
      8 C         141.8475  141.6881  166.9114 C.3     1  UNL1        0.1186
      9 CL        145.7391  141.8365  163.4714 Cl      1  UNL1       -0.0814
     10 C         144.8173  141.0515  164.3570 C.ar    1  UNL1        0.0679
     11 C         144.9195  139.5559  164.4081 C.ar    1  UNL1        0.0122
     12 C         143.9977  138.7710  165.2936 C.ar    1  UNL1        0.0007
     13 C         142.9738  139.4817  166.1280 C.ar    1  UNL1       -0.0017
     14 C         142.8716  140.9774  166.0769 C.ar    1  UNL1        0.0090
     15 C         143.7933  141.7623  165.1914 C.ar    1  UNL1        0.0658
     16 CL        143.6912  143.2579  165.1403 Cl      1  UNL1       -0.0816
     17 C         139.7468  140.2399  167.4009 C.3     1  UNL1        0.0938
     18 C         139.8483  140.1035  168.8912 C.3     1  UNL1        0.0512
     19 C         140.9415  139.7368  169.8506 C.3     1  UNL1        0.0716
     20 N         139.9920  139.9104  170.9988 N.3     1  UNL1       -0.2973
     21 C         138.8989  140.2771  170.0394 C.3     1  UNL1        0.0716
     22 H         140.2494  140.6586  171.6425 H       1  UNL1        0.1233
@<TRIPOS>BOND
     1     9    10    1
     2    10    11   ar
     3    11    12   ar
     4    12    13   ar
     5    13    14   ar
     6    14     8    1
     7     8     1    1
     8     1    17    1
     9    17    18    1
    10    18    19    1
    11    19    20    1
    12    20    21    1
    13     1     2    1
    14     2     3   ar
    15     3     4   ar
    16     4     5   ar
    17     5     6   ar
    18     6     7   ar
    19    14    15   ar
    20    15    16    1
    21    15    10   ar
    22    21    18    1
    23     7     2   ar
    24    20    22    1
@<TRIPOS>MOLECULE
*****
 22 24 0 0 0
SMALL
GASTEIGER

@<TRIPOS>ATOM
      1 N         142.3571  141.9038  167.3890 N.pl3   1  UNL1       -0.3035
      2 C         143.0447  141.0447  166.3696 C.ar    1  UNL1        0.0481
      3 C         143.0074  139.5508  166.4998 C.ar    1  UNL1        0.0145
      4 C         143.6950  138.6918  165.4804 C.ar    1  UNL1        0.0013
      5 C         144.4198  139.3265  164.3308 C.ar    1  UNL1        0.0001
      6 C         144.4572  140.8205  164.2006 C.ar    1  UNL1        0.0013
      7 C         143.7696  141.6795  165.2200 C.ar    1  UNL1        0.0145
      8 C         140.9684  142.4084  167.1307 C.3     1  UNL1        0.1186
      9 CL        137.7895  138.3139  166.7702 Cl      1  UNL1       -0.0814
     10 C         138.4150  139.5310  166.1557 C.ar    1  UNL1        0.0679
     11 C         138.0765  139.9179  164.7466 C.ar    1  UNL1        0.0122
     12 C         138.7020  141.1349  164.1321 C.ar    1  UNL1        0.0007
     13 C         139.6659  141.9651  164.9268 C.ar    1  UNL1       -0.0017
     14 C         140.0044  141.5782  166.3360 C.ar    1  UNL1        0.0090
     15 C         139.3790  140.3612  166.9504 C.ar    1  UNL1        0.0658
     16 CL        139.7175  139.9743  168.3596 Cl      1  UNL1       -0.0816
     17 C         143.0583  142.2582  168.6669 C.3     1  UNL1        0.0938
     18 C         142.6686  141.5831  169.9484 C.3     1  UNL1        0.0512
     19 C         141.8796  141.9821  171.1601 C.3     1  UNL1        0.0716
     20 N         142.1174  140.6283  171.7608 N.3     1  UNL1       -0.2973
     21 C         142.9064  140.2293  170.5490 C.3     1  UNL1        0.0716
     22 H         141.2685  140.0812  171.9037 H       1  UNL1        0.1233
@<TRIPOS>BOND
     1     9    10    1
     2    10    11   ar
     3    11    12   ar
     4    12    13   ar
     5    13    14   ar
     6    14     8    1
     7     8     1    1
     8     1    17    1
     9    17    18    1
    10    18    19    1
    11    19    20    1
    12    20    21    1
    13     1     2    1
    14     2     3   ar
    15     3     4   ar
    16     4     5   ar
    17     5     6   ar
    18     6     7   ar
    19    14    15   ar
    20    15    16    1
    21    15    10   ar
    22    21    18    1
    23     7     2   ar
    24    20    22    1
@<TRIPOS>MOLECULE
*****
 22 24 0 0 0
SMALL
GASTEIGER

@<TRIPOS>ATOM
      1 N         140.9630  142.1358  167.3825 N.pl3   1  UNL1       -0.3035
      2 C         140.8317  142.9821  166.1510 C.ar    1  UNL1        0.0481
      3 C         139.5671  143.7485  165.8991 C.ar    1  UNL1        0.0145
      4 C         139.4358  144.5949  164.6677 C.ar    1  UNL1        0.0013
      5 C         140.5689  144.6748  163.6882 C.ar    1  UNL1        0.0001
      6 C         141.8335  143.9084  163.9401 C.ar    1  UNL1        0.0013
      7 C         141.9649  143.0620  165.1715 C.ar    1  UNL1        0.0145
      8 C         141.4344  140.7162  167.2701 C.3     1  UNL1        0.1186
      9 CL        141.0127  136.9156  163.7519 Cl      1  UNL1       -0.0814
     10 C         140.3871  137.8030  164.7870 C.ar    1  UNL1        0.0679
     11 C         138.9250  137.6775  165.0979 C.ar    1  UNL1        0.0122
     12 C         138.2995  138.5648  166.1328 C.ar    1  UNL1        0.0007
     13 C         139.1359  139.5777  166.8569 C.ar    1  UNL1       -0.0017
     14 C         140.5980  139.7033  166.5460 C.ar    1  UNL1        0.0090
     15 C         141.2235  138.8159  165.5110 C.ar    1  UNL1        0.0658
     16 CL        142.6856  138.9415  165.2001 Cl      1  UNL1       -0.0816
     17 C         140.6230  142.7090  168.7263 C.3     1  UNL1        0.0938
     18 C         140.6593  141.8357  169.9453 C.3     1  UNL1        0.0512
     19 C         139.8466  140.6784  170.4455 C.3     1  UNL1        0.0716
     20 N         140.7106  140.6005  171.6691 N.3     1  UNL1       -0.2973
     21 C         141.5234  141.7577  171.1689 C.3     1  UNL1        0.0716
     22 H         141.2346  139.7295  171.7541 H       1  UNL1        0.1233
@<TRIPOS>BOND
     1     9    10    1
     2    10    11   ar
     3    11    12   ar
     4    12    13   ar
     5    13    14   ar
     6    14     8    1
     7     8     1    1
     8     1    17    1
     9    17    18    1
    10    18    19    1
    11    19    20    1
    12    20    21    1
    13     1     2    1
    14     2     3   ar
    15     3     4   ar
    16     4     5   ar
    17     5     6   ar
    18     6     7   ar
    19    14    15   ar
    20    15    16    1
    21    15    10   ar
    22    21    18    1
    23     7     2   ar
    24    20    22    1
@<TRIPOS>MOLECULE
*****
 22 24 0 0 0
SMALL
GASTEIGER

@<TRIPOS>ATOM
      1 N         141.5779  141.8531  167.3123 N.pl3   1  UNL1       -0.3035
      2 C         142.1947  142.5804  166.1544 C.ar    1  UNL1        0.0481
      3 C         141.3190  143.2208  165.1186 C.ar    1  UNL1        0.0145
      4 C         141.9358  143.9481  163.9607 C.ar    1  UNL1        0.0013
      5 C         143.4282  144.0351  163.8388 C.ar    1  UNL1        0.0001
      6 C         144.3040  143.3947  164.8747 C.ar    1  UNL1        0.0013
      7 C         143.6872  142.6674  166.0325 C.ar    1  UNL1        0.0145
      8 C         141.6421  140.3559  167.3776 C.3     1  UNL1        0.1186
      9 CL        140.9882  136.9756  163.4858 Cl      1  UNL1       -0.0814
     10 C         140.4100  137.8379  164.5685 C.ar    1  UNL1        0.0679
     11 C         138.9265  137.8722  164.7880 C.ar    1  UNL1        0.0122
     12 C         138.3483  138.7343  165.8707 C.ar    1  UNL1        0.0007
     13 C         139.2535  139.5622  166.7338 C.ar    1  UNL1       -0.0017
     14 C         140.7369  139.5280  166.5144 C.ar    1  UNL1        0.0090
     15 C         141.3152  138.6658  165.4317 C.ar    1  UNL1        0.0658
     16 CL        142.7987  138.6315  165.2122 Cl      1  UNL1       -0.0816
     17 C         140.8969  142.6230  168.4048 C.3     1  UNL1        0.0938
     18 C         141.3951  142.5224  169.8160 C.3     1  UNL1        0.0512
     19 C         140.8433  141.9755  171.0991 C.3     1  UNL1        0.0716
     20 N         142.0997  142.3801  171.8118 N.3     1  UNL1       -0.2973
     21 C         142.6514  142.9271  170.5287 C.3     1  UNL1        0.0716
     22 H         142.6317  141.5984  172.1942 H       1  UNL1        0.1233
@<TRIPOS>BOND
     1     9    10    1
     2    10    11   ar
     3    11    12   ar
     4    12    13   ar
     5    13    14   ar
     6    14     8    1
     7     8     1    1
     8     1    17    1
     9    17    18    1
    10    18    19    1
    11    19    20    1
    12    20    21    1
    13     1     2    1
    14     2     3   ar
    15     3     4   ar
    16     4     5   ar
    17     5     6   ar
    18     6     7   ar
    19    14    15   ar
    20    15    16    1
    21    15    10   ar
    22    21    18    1
    23     7     2   ar
    24    20    22    1
@<TRIPOS>MOLECULE
*****
 22 24 0 0 0
SMALL
GASTEIGER

@<TRIPOS>ATOM
      1 N         141.3258  141.1631  166.4428 N.pl3   1  UNL1       -0.3035
      2 C         140.4585  139.9887  166.0987 C.ar    1  UNL1        0.0481
      3 C         139.0713  139.8906  166.6607 C.ar    1  UNL1        0.0145
      4 C         138.2039  138.7162  166.3166 C.ar    1  UNL1        0.0013
      5 C         138.7238  137.6398  165.4105 C.ar    1  UNL1        0.0001
      6 C         140.1111  137.7378  164.8484 C.ar    1  UNL1        0.0013
      7 C         140.9785  138.9123  165.1925 C.ar    1  UNL1        0.0145
      8 C         141.4629  142.3027  165.4772 C.3     1  UNL1        0.1186
      9 CL        138.1039  142.7205  161.5347 Cl      1  UNL1       -0.0814
     10 C         138.5597  143.1346  162.9026 C.ar    1  UNL1        0.0679
     11 C         137.7915  144.1718  163.6669 C.ar    1  UNL1        0.0122
     12 C         138.2472  144.5860  165.0347 C.ar    1  UNL1        0.0007
     13 C         139.4710  143.9630  165.6381 C.ar    1  UNL1       -0.0017
     14 C         140.2391  142.9258  164.8737 C.ar    1  UNL1        0.0090
     15 C         139.7834  142.5116  163.5060 C.ar    1  UNL1        0.0658
     16 CL        140.5515  141.4744  162.7417 Cl      1  UNL1       -0.0816
     17 C         142.0562  141.1979  167.7527 C.3     1  UNL1        0.0938
     18 C         141.7264  142.2522  168.7674 C.3     1  UNL1        0.0512
     19 C         142.4652  142.9031  169.8990 C.3     1  UNL1        0.0716
     20 N         141.2601  143.7431  170.2026 N.3     1  UNL1       -0.2973
     21 C         140.5214  143.0922  169.0710 C.3     1  UNL1        0.0716
     22 H         141.4094  144.7448  170.0809 H       1  UNL1        0.1233
@<TRIPOS>BOND
     1     9    10    1
     2    10    11   ar
     3    11    12   ar
     4    12    13   ar
     5    13    14   ar
     6    14     8    1
     7     8     1    1
     8     1    17    1
     9    17    18    1
    10    18    19    1
    11    19    20    1
    12    20    21    1
    13     1     2    1
    14     2     3   ar
    15     3     4   ar
    16     4     5   ar
    17     5     6   ar
    18     6     7   ar
    19    14    15   ar
    20    15    16    1
    21    15    10   ar
    22    21    18    1
    23     7     2   ar
    24    20    22    1
@<TRIPOS>MOLECULE
*****
 22 24 0 0 0
SMALL
GASTEIGER

@<TRIPOS>ATOM
      1 N         142.1250  140.1035  166.4623 N.pl3   1  UNL1       -0.3035
      2 C         140.7339  139.5430  166.4376 C.ar    1  UNL1        0.0481
      3 C         139.7751  139.8667  167.5448 C.ar    1  UNL1        0.0145
      4 C         138.3839  139.3063  167.5201 C.ar    1  UNL1        0.0013
      5 C         137.9516  138.4221  166.3881 C.ar    1  UNL1        0.0001
      6 C         138.9104  138.0984  165.2809 C.ar    1  UNL1        0.0013
      7 C         140.3015  138.6588  165.3056 C.ar    1  UNL1        0.0145
      8 C         142.3537  141.5246  166.8844 C.3     1  UNL1        0.1186
      9 CL        140.2786  144.9638  163.5879 Cl      1  UNL1       -0.0814
     10 C         141.4850  144.3162  164.2006 C.ar    1  UNL1        0.0679
     11 C         142.8601  144.7406  163.7778 C.ar    1  UNL1        0.0122
     12 C         144.0665  144.0931  164.3905 C.ar    1  UNL1        0.0007
     13 C         143.8976  143.0211  165.4260 C.ar    1  UNL1       -0.0017
     14 C         142.5225  142.5966  165.8488 C.ar    1  UNL1        0.0090
     15 C         141.3161  143.2442  165.2361 C.ar    1  UNL1        0.0658
     16 CL        139.9410  142.8197  165.6589 Cl      1  UNL1       -0.0816
     17 C         143.2875  139.2428  166.0650 C.3     1  UNL1        0.0938
     18 C         143.8520  139.3382  164.6786 C.3     1  UNL1        0.0512
     19 C         145.0985  139.9180  164.0785 C.3     1  UNL1        0.0716
     20 N         144.6504  139.4731  162.7178 N.3     1  UNL1       -0.2973
     21 C         143.4039  138.8933  163.3179 C.3     1  UNL1        0.0716
     22 H         145.2629  138.7833  162.2826 H       1  UNL1        0.1233
@<TRIPOS>BOND
     1     9    10    1
     2    10    11   ar
     3    11    12   ar
     4    12    13   ar
     5    13    14   ar
     6    14     8    1
     7     8     1    1
     8     1    17    1
     9    17    18    1
    10    18    19    1
    11    19    20    1
    12    20    21    1
    13     1     2    1
    14     2     3   ar
    15     3     4   ar
    16     4     5   ar
    17     5     6   ar
    18     6     7   ar
    19    14    15   ar
    20    15    16    1
    21    15    10   ar
    22    21    18    1
    23     7     2   ar
    24    20    22    1
@<TRIPOS>MOLECULE
*****
 22 24 0 0 0
SMALL
GASTEIGER

@<TRIPOS>ATOM
      1 N         142.0433  141.8517  166.3672 N.pl3   1  UNL1       -0.3035
      2 C         143.2460  141.6047  165.5055 C.ar    1  UNL1        0.0481
      3 C         144.0698  142.7598  165.0186 C.ar    1  UNL1        0.0145
      4 C         145.2725  142.5128  164.1569 C.ar    1  UNL1        0.0013
      5 C         145.6514  141.1107  163.7821 C.ar    1  UNL1        0.0001
      6 C         144.8276  139.9555  164.2690 C.ar    1  UNL1        0.0013
      7 C         143.6249  140.2025  165.1307 C.ar    1  UNL1        0.0145
      8 C         140.6703  141.8261  165.7638 C.3     1  UNL1        0.1186
      9 CL        138.8998  137.6055  163.3035 Cl      1  UNL1       -0.0814
     10 C         138.9855  138.4467  164.5426 C.ar    1  UNL1        0.0679
     11 C         138.2716  138.0188  165.7904 C.ar    1  UNL1        0.0122
     12 C         138.3573  138.8599  167.0294 C.ar    1  UNL1        0.0007
     13 C         139.1568  140.1290  167.0205 C.ar    1  UNL1       -0.0017
     14 C         139.8707  140.5569  165.7726 C.ar    1  UNL1        0.0090
     15 C         139.7851  139.7158  164.5337 C.ar    1  UNL1        0.0658
     16 CL        140.4990  140.1437  163.2858 Cl      1  UNL1       -0.0816
     17 C         142.2137  142.1243  167.8324 C.3     1  UNL1        0.0938
     18 C         142.5679  141.0060  168.7671 C.3     1  UNL1        0.0512
     19 C         143.1669  140.9203  170.1397 C.3     1  UNL1        0.0716
     20 N         143.0689  139.4244  170.0891 N.3     1  UNL1       -0.2973
     21 C         142.4699  139.5101  168.7166 C.3     1  UNL1        0.0716
     22 H         142.4463  139.0239  170.7909 H       1  UNL1        0.1233
@<TRIPOS>BOND
     1     9    10    1
     2    10    11   ar
     3    11    12   ar
     4    12    13   ar
     5    13    14   ar
     6    14     8    1
     7     8     1    1
     8     1    17    1
     9    17    18    1
    10    18    19    1
    11    19    20    1
    12    20    21    1
    13     1     2    1
    14     2     3   ar
    15     3     4   ar
    16     4     5   ar
    17     5     6   ar
    18     6     7   ar
    19    14    15   ar
    20    15    16    1
    21    15    10   ar
    22    21    18    1
    23     7     2   ar
    24    20    22    1
@<TRIPOS>MOLECULE
*****
 22 24 0 0 0
SMALL
GASTEIGER

@<TRIPOS>ATOM
      1 N         141.4896  141.4205  164.6218 N.pl3   1  UNL1       -0.3035
      2 C         140.2934  142.3251  164.6494 C.ar    1  UNL1        0.0481
      3 C         138.9233  141.7645  164.4079 C.ar    1  UNL1        0.0145
      4 C         137.7271  142.6691  164.4355 C.ar    1  UNL1        0.0013
      5 C         137.9010  144.1344  164.7047 C.ar    1  UNL1        0.0001
      6 C         139.2712  144.6952  164.9463 C.ar    1  UNL1        0.0013
      7 C         140.4674  143.7905  164.9186 C.ar    1  UNL1        0.0145
      8 C         141.7587  140.4976  165.7732 C.3     1  UNL1        0.1186
      9 CL        142.2097  143.1662  170.2089 Cl      1  UNL1       -0.0814
     10 C         141.4740  142.1720  169.3600 C.ar    1  UNL1        0.0679
     11 C         140.2283  141.5181  169.8801 C.ar    1  UNL1        0.0122
     12 C         139.4927  140.5240  169.0312 C.ar    1  UNL1        0.0007
     13 C         140.0028  140.1838  167.6623 C.ar    1  UNL1       -0.0017
     14 C         141.2486  140.8378  167.1422 C.ar    1  UNL1        0.0090
     15 C         141.9842  141.8319  167.9911 C.ar    1  UNL1        0.0658
     16 CL        143.2299  142.4858  167.4710 Cl      1  UNL1       -0.0816
     17 C         142.4167  141.4388  163.4427 C.3     1  UNL1        0.0938
     18 C         143.8981  141.5408  163.6549 C.3     1  UNL1        0.0512
     19 C         144.8195  142.5809  164.2197 C.3     1  UNL1        0.0716
     20 N         145.9931  141.6851  163.9550 N.3     1  UNL1       -0.2973
     21 C         145.0717  140.6449  163.3901 C.3     1  UNL1        0.0716
     22 H         146.4893  141.3894  164.7957 H       1  UNL1        0.1233
@<TRIPOS>BOND
     1     9    10    1
     2    10    11   ar
     3    11    12   ar
     4    12    13   ar
     5    13    14   ar
     6    14     8    1
     7     8     1    1
     8     1    17    1
     9    17    18    1
    10    18    19    1
    11    19    20    1
    12    20    21    1
    13     1     2    1
    14     2     3   ar
    15     3     4   ar
    16     4     5   ar
    17     5     6   ar
    18     6     7   ar
    19    14    15   ar
    20    15    16    1
    21    15    10   ar
    22    21    18    1
    23     7     2   ar
    24    20    22    1
@<TRIPOS>MOLECULE
*****
 22 24 0 0 0
SMALL
GASTEIGER

@<TRIPOS>ATOM
      1 N         140.0923  140.7039  165.2254 N.pl3   1  UNL1       -0.3035
      2 C         139.3251  141.8786  164.6949 C.ar    1  UNL1        0.0481
      3 C         139.5824  143.2513  165.2419 C.ar    1  UNL1        0.0145
      4 C         138.8151  144.4260  164.7115 C.ar    1  UNL1        0.0013
      5 C         137.7906  144.2280  163.6340 C.ar    1  UNL1        0.0001
      6 C         137.5332  142.8551  163.0869 C.ar    1  UNL1        0.0013
      7 C         138.3005  141.6804  163.6174 C.ar    1  UNL1        0.0145
      8 C         141.2829  140.9237  166.1109 C.3     1  UNL1        0.1186
      9 CL        142.8596  138.2536  170.2804 Cl      1  UNL1       -0.0814
     10 C         141.9773  139.2986  169.6643 C.ar    1  UNL1        0.0679
     11 C         141.0012  140.0537  170.5170 C.ar    1  UNL1        0.0122
     12 C         140.1190  141.0988  169.9010 C.ar    1  UNL1        0.0007
     13 C         140.2129  141.3887  168.4323 C.ar    1  UNL1       -0.0017
     14 C         141.1890  140.6336  167.5796 C.ar    1  UNL1        0.0090
     15 C         142.0713  139.5886  168.1957 C.ar    1  UNL1        0.0658
     16 CL        143.0474  138.8335  167.3430 Cl      1  UNL1       -0.0816
     17 C         139.6689  139.3093  164.8703 C.3     1  UNL1        0.0938
     18 C         138.7262  138.5609  165.7654 C.3     1  UNL1        0.0512
     19 C         137.8333  138.9315  166.9122 C.3     1  UNL1        0.0716
     20 N         137.3930  137.5025  167.0312 N.3     1  UNL1       -0.2973
     21 C         138.2859  137.1319  165.8843 C.3     1  UNL1        0.0716
     22 H         136.3999  137.3563  166.8499 H       1  UNL1        0.1233
@<TRIPOS>BOND
     1     9    10    1
     2    10    11   ar
     3    11    12   ar
     4    12    13   ar
     5    13    14   ar
     6    14     8    1
     7     8     1    1
     8     1    17    1
     9    17    18    1
    10    18    19    1
    11    19    20    1
    12    20    21    1
    13     1     2    1
    14     2     3   ar
    15     3     4   ar
    16     4     5   ar
    17     5     6   ar
    18     6     7   ar
    19    14    15   ar
    20    15    16    1
    21    15    10   ar
    22    21    18    1
    23     7     2   ar
    24    20    22    1
