@<TRIPOS>MOLECULE
*****
 26 30 0 0 0
SMALL
GASTEIGER

@<TRIPOS>ATOM
      1 C         139.9059  139.5602  166.7013 C.ar    1  UNL1        0.0152
      2 C         138.6440  138.8132  166.3855 C.ar    1  UNL1        0.0043
      3 C         138.4842  138.1397  165.0547 C.ar    1  UNL1        0.0369
      4 C         139.5863  138.2133  164.0398 C.ar    1  UNL1        0.1384
      5 C         140.8481  138.9602  164.3556 C.ar    1  UNL1        0.0369
      6 C         141.0079  139.6337  165.6864 C.ar    1  UNL1        0.0043
      7 O         140.5451  142.2541  172.0243 O.2     1  UNL1       -0.2734
      8 C         140.3853  141.5806  170.6936 C.2     1  UNL1        0.2410
      9 N         139.2770  140.5924  170.4814 N.am    1  UNL1       -0.2062
     10 N         139.1172  139.9189  169.1506 N.2     1  UNL1       -0.1836
     11 C         140.0657  140.2337  168.0321 C.2     1  UNL1        0.0763
     12 C         141.1741  141.2220  168.2442 C.3     1  UNL1        0.0509
     13 C         142.2823  142.2102  168.4564 C.3     1  UNL1        0.0160
     14 C         141.3339  141.8954  169.5749 C.3     1  UNL1        0.0841
     15 H         138.6545  140.3857  171.2156 H       1  UNL1        0.1772
     16 O         139.4265  137.5398  162.7090 O.3     1  UNL1       -0.4791
     17 C         139.0634  138.3477  161.4984 C.3     1  UNL1        0.1687
     18 C         137.7542  139.0780  161.4491 C.3     1  UNL1        0.0609
     19 C         137.3911  139.8859  160.2384 C.3     1  UNL1        0.0758
     20 N         138.3374  139.9634  159.0772 N.3     1  UNL1       -0.2737
     21 C         139.6467  139.2331  159.1265 C.3     1  UNL1        0.0758
     22 C         140.0097  138.4253  160.3371 C.3     1  UNL1        0.0609
     23 C         137.9744  140.7713  157.8666 C.3     1  UNL1        0.0575
     24 C         137.6511  140.4529  156.4368 C.3     1  UNL1        0.0160
     25 C         137.4610  141.9137  156.1545 C.3     1  UNL1        0.0028
     26 C         137.7843  142.2321  157.5842 C.3     1  UNL1        0.0160
@<TRIPOS>BOND
     1     7     8    2
     2     8     9   am
     3     9    10    1
     4    10    11    2
     5    11     1    1
     6     1     2   ar
     7     2     3   ar
     8     3     4   ar
     9     4    16    1
    10    16    17    1
    11    17    18    1
    12    18    19    1
    13    19    20    1
    14    20    23    1
    15    23    24    1
    16    24    25    1
    17    25    26    1
    18    20    21    1
    19    21    22    1
    20     4     5   ar
    21     5     6   ar
    22    11    12    1
    23    12    13    1
    24    14    13    1
    25    14     8    1
    26     6     1   ar
    27    14    12    1
    28    22    17    1
    29    26    23    1
    30     9    15    1
@<TRIPOS>MOLECULE
*****
 26 30 0 0 0
SMALL
GASTEIGER

@<TRIPOS>ATOM
      1 C         142.7302  140.3526  167.2187 C.ar    1  UNL1        0.0152
      2 C         143.0312  138.8962  167.0230 C.ar    1  UNL1        0.0043
      3 C         143.6177  138.4190  165.7274 C.ar    1  UNL1        0.0369
      4 C         143.9031  139.3983  164.6276 C.ar    1  UNL1        0.1384
      5 C         143.6021  140.8547  164.8233 C.ar    1  UNL1        0.0369
      6 C         143.0156  141.3318  166.1189 C.ar    1  UNL1        0.0043
      7 O         140.3843  142.2611  172.4008 O.2     1  UNL1       -0.2734
      8 C         140.9708  141.7840  171.1053 C.2     1  UNL1        0.2410
      9 N         142.4071  142.0706  170.7815 N.am    1  UNL1       -0.2062
     10 N         142.9936  141.5935  169.4860 N.2     1  UNL1       -0.1836
     11 C         142.1437  140.8297  168.5142 C.2     1  UNL1        0.0763
     12 C         140.7073  140.5431  168.8379 C.3     1  UNL1        0.0509
     13 C         139.2710  140.2565  169.1616 C.3     1  UNL1        0.0160
     14 C         140.1209  141.0203  170.1334 C.3     1  UNL1        0.0841
     15 H         142.9649  142.5718  171.4194 H       1  UNL1        0.1772
     16 O         144.4896  138.9212  163.3321 O.3     1  UNL1       -0.4791
     17 C         143.6194  138.7929  162.1170 C.3     1  UNL1        0.1687
     18 C         142.2546  138.1815  162.2331 C.3     1  UNL1        0.0609
     19 C         141.3843  138.0532  161.0181 C.3     1  UNL1        0.0758
     20 N         141.8790  138.5363  159.6869 N.3     1  UNL1       -0.2737
     21 C         143.2438  139.1478  159.5709 C.3     1  UNL1        0.0758
     22 C         144.1140  139.2760  160.7859 C.3     1  UNL1        0.0609
     23 C         141.0088  138.4081  158.4719 C.3     1  UNL1        0.0575
     24 C         139.7203  139.0289  158.0197 C.3     1  UNL1        0.0160
     25 C         139.7782  138.2267  156.7536 C.3     1  UNL1        0.0028
     26 C         141.0666  137.6059  157.2058 C.3     1  UNL1        0.0160
@<TRIPOS>BOND
     1     7     8    2
     2     8     9   am
     3     9    10    1
     4    10    11    2
     5    11     1    1
     6     1     2   ar
     7     2     3   ar
     8     3     4   ar
     9     4    16    1
    10    16    17    1
    11    17    18    1
    12    18    19    1
    13    19    20    1
    14    20    23    1
    15    23    24    1
    16    24    25    1
    17    25    26    1
    18    20    21    1
    19    21    22    1
    20     4     5   ar
    21     5     6   ar
    22    11    12    1
    23    12    13    1
    24    14    13    1
    25    14     8    1
    26     6     1   ar
    27    14    12    1
    28    22    17    1
    29    26    23    1
    30     9    15    1
@<TRIPOS>MOLECULE
*****
 26 30 0 0 0
SMALL
GASTEIGER

@<TRIPOS>ATOM
      1 C         141.4327  139.6045  167.0903 C.ar    1  UNL1        0.0152
      2 C         140.3313  139.4942  166.0779 C.ar    1  UNL1        0.0043
      3 C         140.5919  138.8374  164.7548 C.ar    1  UNL1        0.0369
      4 C         141.9538  138.2909  164.4440 C.ar    1  UNL1        0.1384
      5 C         143.0551  138.4012  165.4564 C.ar    1  UNL1        0.0369
      6 C         142.7945  139.0580  166.7796 C.ar    1  UNL1        0.0043
      7 O         140.3903  142.2319  172.3828 O.2     1  UNL1       -0.2734
      8 C         140.6509  141.5751  171.0597 C.2     1  UNL1        0.2410
      9 N         139.6939  140.5483  170.5306 N.am    1  UNL1       -0.2062
     10 N         139.9545  139.8915  169.2075 N.2     1  UNL1       -0.1836
     11 C         141.1721  140.2614  168.4134 C.2     1  UNL1        0.0763
     12 C         142.1292  141.2882  168.9424 C.3     1  UNL1        0.0509
     13 C         143.0861  142.3150  169.4714 C.3     1  UNL1        0.0160
     14 C         141.8686  141.9450  170.2655 C.3     1  UNL1        0.0841
     15 H         138.8948  140.3055  171.0518 H       1  UNL1        0.1772
     16 O         142.2144  137.6340  163.1209 O.3     1  UNL1       -0.4791
     17 C         142.6956  138.4521  161.9593 C.3     1  UNL1        0.1687
     18 C         142.2394  138.1216  160.5691 C.3     1  UNL1        0.0609
     19 C         142.7206  138.9397  159.4075 C.3     1  UNL1        0.0758
     20 N         143.6579  140.0883  159.6361 N.3     1  UNL1       -0.2737
     21 C         144.1141  140.4187  161.0264 C.3     1  UNL1        0.0758
     22 C         143.6329  139.6006  162.1879 C.3     1  UNL1        0.0609
     23 C         144.1391  140.9063  158.4746 C.3     1  UNL1        0.0575
     24 C         144.3566  142.3694  158.2255 C.3     1  UNL1        0.0160
     25 C         144.8195  142.0633  156.8319 C.3     1  UNL1        0.0028
     26 C         144.6019  140.6002  157.0810 C.3     1  UNL1        0.0160
@<TRIPOS>BOND
     1     7     8    2
     2     8     9   am
     3     9    10    1
     4    10    11    2
     5    11     1    1
     6     1     2   ar
     7     2     3   ar
     8     3     4   ar
     9     4    16    1
    10    16    17    1
    11    17    18    1
    12    18    19    1
    13    19    20    1
    14    20    23    1
    15    23    24    1
    16    24    25    1
    17    25    26    1
    18    20    21    1
    19    21    22    1
    20     4     5   ar
    21     5     6   ar
    22    11    12    1
    23    12    13    1
    24    14    13    1
    25    14     8    1
    26     6     1   ar
    27    14    12    1
    28    22    17    1
    29    26    23    1
    30     9    15    1
@<TRIPOS>MOLECULE
*****
 26 30 0 0 0
SMALL
GASTEIGER

@<TRIPOS>ATOM
      1 C         139.4066  139.7778  166.6894 C.ar    1  UNL1        0.0152
      2 C         138.8182  138.4010  166.5974 C.ar    1  UNL1        0.0043
      3 C         138.5596  137.7841  165.2549 C.ar    1  UNL1        0.0369
      4 C         138.8893  138.5439  164.0042 C.ar    1  UNL1        0.1384
      5 C         139.4776  139.9206  164.0962 C.ar    1  UNL1        0.0369
      6 C         139.7362  140.5376  165.4388 C.ar    1  UNL1        0.0043
      7 O         140.4411  142.2455  172.0597 O.2     1  UNL1       -0.2734
      8 C         140.1825  141.6286  170.7171 C.2     1  UNL1        0.2410
      9 N         139.2007  140.5021  170.5859 N.am    1  UNL1       -0.2062
     10 N         138.9421  139.8852  169.2433 N.2     1  UNL1       -0.1836
     11 C         139.6652  140.3947  168.0320 C.2     1  UNL1        0.0763
     12 C         140.6470  141.5212  168.1631 C.3     1  UNL1        0.0509
     13 C         141.6287  142.6477  168.2943 C.3     1  UNL1        0.0160
     14 C         140.9056  142.1382  169.5057 C.3     1  UNL1        0.0841
     15 H         138.7261  140.1677  171.3810 H       1  UNL1        0.1772
     16 O         138.6306  137.9270  162.6617 O.3     1  UNL1       -0.4791
     17 C         139.5666  138.1947  161.5204 C.3     1  UNL1        0.1687
     18 C         141.0355  137.9356  161.6786 C.3     1  UNL1        0.0609
     19 C         141.9715  138.2034  160.5373 C.3     1  UNL1        0.0758
     20 N         141.4384  138.7301  159.2379 N.3     1  UNL1       -0.2737
     21 C         139.9694  138.9891  159.0798 C.3     1  UNL1        0.0758
     22 C         139.0335  138.7214  160.2210 C.3     1  UNL1        0.0609
     23 C         142.3743  138.9978  158.0967 C.3     1  UNL1        0.0575
     24 C         143.4083  140.0418  157.7955 C.3     1  UNL1        0.0160
     25 C         143.6978  139.3764  156.4827 C.3     1  UNL1        0.0028
     26 C         142.6637  138.3324  156.7839 C.3     1  UNL1        0.0160
@<TRIPOS>BOND
     1     7     8    2
     2     8     9   am
     3     9    10    1
     4    10    11    2
     5    11     1    1
     6     1     2   ar
     7     2     3   ar
     8     3     4   ar
     9     4    16    1
    10    16    17    1
    11    17    18    1
    12    18    19    1
    13    19    20    1
    14    20    23    1
    15    23    24    1
    16    24    25    1
    17    25    26    1
    18    20    21    1
    19    21    22    1
    20     4     5   ar
    21     5     6   ar
    22    11    12    1
    23    12    13    1
    24    14    13    1
    25    14     8    1
    26     6     1   ar
    27    14    12    1
    28    22    17    1
    29    26    23    1
    30     9    15    1
@<TRIPOS>MOLECULE
*****
 26 30 0 0 0
SMALL
GASTEIGER

@<TRIPOS>ATOM
      1 C         140.4125  142.8703  166.0658 C.ar    1  UNL1        0.0152
      2 C         141.6483  142.6284  165.2507 C.ar    1  UNL1        0.0043
      3 C         141.8848  143.4149  163.9955 C.ar    1  UNL1        0.0369
      4 C         140.8853  144.4433  163.5554 C.ar    1  UNL1        0.1384
      5 C         139.6495  144.6851  164.3704 C.ar    1  UNL1        0.0369
      6 C         139.4131  143.8986  165.6256 C.ar    1  UNL1        0.0043
      7 O         139.4667  139.7243  171.0865 O.2     1  UNL1       -0.2734
      8 C         139.7032  140.5108  169.8313 C.2     1  UNL1        0.2410
      9 N         139.5466  139.8521  168.4928 N.am    1  UNL1       -0.2062
     10 N         139.7830  140.6386  167.2376 N.2     1  UNL1       -0.1836
     11 C         140.1760  142.0838  167.3209 C.2     1  UNL1        0.0763
     12 C         140.3326  142.7425  168.6595 C.3     1  UNL1        0.0509
     13 C         140.4892  143.4012  169.9980 C.3     1  UNL1        0.0160
     14 C         140.0962  141.9560  169.9147 C.3     1  UNL1        0.0841
     15 H         139.2886  138.9036  168.4381 H       1  UNL1        0.1772
     16 O         141.1218  145.2298  162.3002 O.3     1  UNL1       -0.4791
     17 C         140.5848  144.7321  160.9909 C.3     1  UNL1        0.1687
     18 C         140.9171  145.4563  159.7201 C.3     1  UNL1        0.0609
     19 C         140.3801  144.9587  158.4108 C.3     1  UNL1        0.0758
     20 N         139.5109  143.7368  158.3725 N.3     1  UNL1       -0.2737
     21 C         139.1786  143.0126  159.6434 C.3     1  UNL1        0.0758
     22 C         139.7156  143.5103  160.9526 C.3     1  UNL1        0.0609
     23 C         138.9739  143.2391  157.0633 C.3     1  UNL1        0.0575
     24 C         137.6801  142.6303  156.6102 C.3     1  UNL1        0.0160
     25 C         138.2146  142.5353  155.2118 C.3     1  UNL1        0.0028
     26 C         139.5084  143.1441  155.6650 C.3     1  UNL1        0.0160
@<TRIPOS>BOND
     1     7     8    2
     2     8     9   am
     3     9    10    1
     4    10    11    2
     5    11     1    1
     6     1     2   ar
     7     2     3   ar
     8     3     4   ar
     9     4    16    1
    10    16    17    1
    11    17    18    1
    12    18    19    1
    13    19    20    1
    14    20    23    1
    15    23    24    1
    16    24    25    1
    17    25    26    1
    18    20    21    1
    19    21    22    1
    20     4     5   ar
    21     5     6   ar
    22    11    12    1
    23    12    13    1
    24    14    13    1
    25    14     8    1
    26     6     1   ar
    27    14    12    1
    28    22    17    1
    29    26    23    1
    30     9    15    1
@<TRIPOS>MOLECULE
*****
 26 30 0 0 0
SMALL
GASTEIGER

@<TRIPOS>ATOM
      1 C         140.7965  142.5458  166.3781 C.ar    1  UNL1        0.0152
      2 C         142.2690  142.4898  166.0977 C.ar    1  UNL1        0.0043
      3 C         142.8396  143.2412  164.9316 C.ar    1  UNL1        0.0369
      4 C         141.9376  144.0486  164.0458 C.ar    1  UNL1        0.1384
      5 C         140.4651  144.1046  164.3262 C.ar    1  UNL1        0.0369
      6 C         139.8946  143.3531  165.4923 C.ar    1  UNL1        0.0043
      7 O         138.5143  139.5401  171.0426 O.2     1  UNL1       -0.2734
      8 C         139.0848  140.2915  169.8764 C.2     1  UNL1        0.2410
      9 N         139.0935  139.6662  168.5130 N.am    1  UNL1       -0.2062
     10 N         139.6640  140.4177  167.3469 N.2     1  UNL1       -0.1836
     11 C         140.2259  141.7943  167.5442 C.2     1  UNL1        0.0763
     12 C         140.2173  142.4197  168.9077 C.3     1  UNL1        0.0509
     13 C         140.2086  143.0449  170.2711 C.3     1  UNL1        0.0160
     14 C         139.6468  141.6683  170.0738 C.3     1  UNL1        0.0841
     15 H         138.7247  138.7627  168.3835 H       1  UNL1        0.1772
     16 O         142.5081  144.8000  162.8797 O.3     1  UNL1       -0.4791
     17 C         143.0012  144.0539  161.6754 C.3     1  UNL1        0.1687
     18 C         142.1942  144.0535  160.4111 C.3     1  UNL1        0.0609
     19 C         142.6873  143.3073  159.2068 C.3     1  UNL1        0.0758
     20 N         143.9875  142.5616  159.2670 N.3     1  UNL1       -0.2737
     21 C         144.7945  142.5621  160.5314 C.3     1  UNL1        0.0758
     22 C         144.3014  143.3082  161.7356 C.3     1  UNL1        0.0609
     23 C         144.4806  141.8155  158.0628 C.3     1  UNL1        0.0575
     24 C         145.3815  142.1413  156.9086 C.3     1  UNL1        0.0160
     25 C         145.1780  140.7603  156.3598 C.3     1  UNL1        0.0028
     26 C         144.2770  140.4344  157.5140 C.3     1  UNL1        0.0160
@<TRIPOS>BOND
     1     7     8    2
     2     8     9   am
     3     9    10    1
     4    10    11    2
     5    11     1    1
     6     1     2   ar
     7     2     3   ar
     8     3     4   ar
     9     4    16    1
    10    16    17    1
    11    17    18    1
    12    18    19    1
    13    19    20    1
    14    20    23    1
    15    23    24    1
    16    24    25    1
    17    25    26    1
    18    20    21    1
    19    21    22    1
    20     4     5   ar
    21     5     6   ar
    22    11    12    1
    23    12    13    1
    24    14    13    1
    25    14     8    1
    26     6     1   ar
    27    14    12    1
    28    22    17    1
    29    26    23    1
    30     9    15    1
@<TRIPOS>MOLECULE
*****
 26 30 0 0 0
SMALL
GASTEIGER

@<TRIPOS>ATOM
      1 C         139.9735  139.6382  166.6314 C.ar    1  UNL1        0.0152
      2 C         140.9978  139.8304  165.5525 C.ar    1  UNL1        0.0043
      3 C         140.8351  139.1377  164.2320 C.ar    1  UNL1        0.0369
      4 C         139.6482  138.2529  163.9904 C.ar    1  UNL1        0.1384
      5 C         138.6240  138.0608  165.0693 C.ar    1  UNL1        0.0369
      6 C         138.7866  138.7534  166.3898 C.ar    1  UNL1        0.0043
      7 O         140.6242  142.4089  171.9134 O.2     1  UNL1       -0.2734
      8 C         140.4615  141.7162  170.5929 C.2     1  UNL1        0.2410
      9 N         141.4794  141.9180  169.5098 N.am    1  UNL1       -0.2062
     10 N         141.3167  141.2253  168.1892 N.2     1  UNL1       -0.1836
     11 C         140.1362  140.3309  167.9519 C.2     1  UNL1        0.0763
     12 C         139.1183  140.1291  169.0351 C.3     1  UNL1        0.0509
     13 C         138.1004  139.9274  170.1182 C.3     1  UNL1        0.0160
     14 C         139.2809  140.8218  170.3556 C.3     1  UNL1        0.0841
     15 H         142.2542  142.5050  169.6655 H       1  UNL1        0.1772
     16 O         139.4855  137.5602  162.6699 O.3     1  UNL1       -0.4791
     17 C         139.1993  138.3601  161.4336 C.3     1  UNL1        0.1687
     18 C         140.1604  138.3310  160.2823 C.3     1  UNL1        0.0609
     19 C         139.8742  139.1309  159.0460 C.3     1  UNL1        0.0758
     20 N         138.6269  139.9599  158.9611 N.3     1  UNL1       -0.2737
     21 C         137.6659  139.9889  160.1125 C.3     1  UNL1        0.0758
     22 C         137.9521  139.1890  161.3487 C.3     1  UNL1        0.0609
     23 C         138.3407  140.7598  157.7249 C.3     1  UNL1        0.0575
     24 C         138.8675  140.7667  156.3205 C.3     1  UNL1        0.0160
     25 C         137.9359  141.8910  155.9766 C.3     1  UNL1        0.0028
     26 C         137.4092  141.8840  157.3811 C.3     1  UNL1        0.0160
@<TRIPOS>BOND
     1     7     8    2
     2     8     9   am
     3     9    10    1
     4    10    11    2
     5    11     1    1
     6     1     2   ar
     7     2     3   ar
     8     3     4   ar
     9     4    16    1
    10    16    17    1
    11    17    18    1
    12    18    19    1
    13    19    20    1
    14    20    23    1
    15    23    24    1
    16    24    25    1
    17    25    26    1
    18    20    21    1
    19    21    22    1
    20     4     5   ar
    21     5     6   ar
    22    11    12    1
    23    12    13    1
    24    14    13    1
    25    14     8    1
    26     6     1   ar
    27    14    12    1
    28    22    17    1
    29    26    23    1
    30     9    15    1
@<TRIPOS>MOLECULE
*****
 26 30 0 0 0
SMALL
GASTEIGER

@<TRIPOS>ATOM
      1 C         139.1005  139.7778  166.2914 C.ar    1  UNL1        0.0152
      2 C         138.5476  140.7602  165.3018 C.ar    1  UNL1        0.0043
      3 C         138.1976  140.3107  163.9142 C.ar    1  UNL1        0.0369
      4 C         138.4006  138.8787  163.5162 C.ar    1  UNL1        0.1384
      5 C         138.9535  137.8964  164.5058 C.ar    1  UNL1        0.0369
      6 C         139.3034  138.3459  165.8934 C.ar    1  UNL1        0.0043
      7 O         140.5003  141.5760  171.8419 O.2     1  UNL1       -0.2734
      8 C         140.1503  141.1264  170.4542 C.2     1  UNL1        0.2410
      9 N         139.1374  140.0389  170.2513 N.am    1  UNL1       -0.2062
     10 N         138.7875  139.5893  168.8637 N.2     1  UNL1       -0.1836
     11 C         139.4504  140.2273  167.6790 C.2     1  UNL1        0.0763
     12 C         140.4634  141.3150  167.8820 C.3     1  UNL1        0.0509
     13 C         141.4763  142.4025  168.0849 C.3     1  UNL1        0.0160
     14 C         140.8133  141.7645  169.2696 C.3     1  UNL1        0.0841
     15 H         138.7023  139.6201  171.0288 H       1  UNL1        0.1772
     16 O         138.0507  138.4292  162.1286 O.3     1  UNL1       -0.4791
     17 C         138.6019  139.1619  160.9414 C.3     1  UNL1        0.1687
     18 C         137.6841  139.9476  160.0525 C.3     1  UNL1        0.0609
     19 C         138.2354  140.6803  158.8653 C.3     1  UNL1        0.0758
     20 N         139.7045  140.6274  158.5672 N.3     1  UNL1       -0.2737
     21 C         140.6223  139.8416  159.4562 C.3     1  UNL1        0.0758
     22 C         140.0710  139.1089  160.6433 C.3     1  UNL1        0.0609
     23 C         140.2558  141.3600  157.3801 C.3     1  UNL1        0.0575
     24 C         140.5115  142.8002  157.0475 C.3     1  UNL1        0.0160
     25 C         141.0355  142.3962  155.7013 C.3     1  UNL1        0.0028
     26 C         140.7797  140.9561  156.0339 C.3     1  UNL1        0.0160
@<TRIPOS>BOND
     1     7     8    2
     2     8     9   am
     3     9    10    1
     4    10    11    2
     5    11     1    1
     6     1     2   ar
     7     2     3   ar
     8     3     4   ar
     9     4    16    1
    10    16    17    1
    11    17    18    1
    12    18    19    1
    13    19    20    1
    14    20    23    1
    15    23    24    1
    16    24    25    1
    17    25    26    1
    18    20    21    1
    19    21    22    1
    20     4     5   ar
    21     5     6   ar
    22    11    12    1
    23    12    13    1
    24    14    13    1
    25    14     8    1
    26     6     1   ar
    27    14    12    1
    28    22    17    1
    29    26    23    1
    30     9    15    1
@<TRIPOS>MOLECULE
*****
 26 30 0 0 0
SMALL
GASTEIGER

@<TRIPOS>ATOM
      1 C         138.6781  139.2413  161.0677 C.ar    1  UNL1        0.0152
      2 C         139.1972  137.9849  161.7017 C.ar    1  UNL1        0.0043
      3 C         139.1077  137.8024  163.1879 C.ar    1  UNL1        0.0369
      4 C         138.4991  138.8765  164.0400 C.ar    1  UNL1        0.1384
      5 C         137.9801  140.1328  163.4060 C.ar    1  UNL1        0.0369
      6 C         138.0696  140.3153  161.9198 C.ar    1  UNL1        0.0043
      7 O         139.0362  139.9711  155.1230 O.2     1  UNL1       -0.2734
      8 C         138.9467  139.7886  156.6092 C.2     1  UNL1        0.2410
      9 N         137.7935  140.3747  157.3686 N.am    1  UNL1       -0.2062
     10 N         137.7040  140.1923  158.8548 N.2     1  UNL1       -0.1836
     11 C         138.7676  139.4238  159.5815 C.2     1  UNL1        0.0763
     12 C         139.9208  138.8377  158.8220 C.3     1  UNL1        0.0509
     13 C         141.0739  138.2516  158.0626 C.3     1  UNL1        0.0160
     14 C         140.0103  139.0201  157.3359 C.3     1  UNL1        0.0841
     15 H         137.0954  140.8791  156.8917 H       1  UNL1        0.1772
     16 O         138.4096  138.6940  165.5262 O.3     1  UNL1       -0.4791
     17 C         139.2830  139.5067  166.4355 C.3     1  UNL1        0.1687
     18 C         138.9571  139.6069  167.8962 C.3     1  UNL1        0.0609
     19 C         139.8305  140.4196  168.8056 C.3     1  UNL1        0.0758
     20 N         141.0299  141.1319  168.2541 N.3     1  UNL1       -0.2737
     21 C         141.3558  141.0316  166.7933 C.3     1  UNL1        0.0758
     22 C         140.4824  140.2190  165.8841 C.3     1  UNL1        0.0609
     23 C         141.9033  141.9446  169.1634 C.3     1  UNL1        0.0575
     24 C         143.3275  141.8546  169.6254 C.3     1  UNL1        0.0160
     25 C         143.1385  143.0938  170.4493 C.3     1  UNL1        0.0028
     26 C         141.7142  143.1837  169.9872 C.3     1  UNL1        0.0160
@<TRIPOS>BOND
     1     7     8    2
     2     8     9   am
     3     9    10    1
     4    10    11    2
     5    11     1    1
     6     1     2   ar
     7     2     3   ar
     8     3     4   ar
     9     4    16    1
    10    16    17    1
    11    17    18    1
    12    18    19    1
    13    19    20    1
    14    20    23    1
    15    23    24    1
    16    24    25    1
    17    25    26    1
    18    20    21    1
    19    21    22    1
    20     4     5   ar
    21     5     6   ar
    22    11    12    1
    23    12    13    1
    24    14    13    1
    25    14     8    1
    26     6     1   ar
    27    14    12    1
    28    22    17    1
    29    26    23    1
    30     9    15    1
