@<TRIPOS>MOLECULE
*****
 35 40 0 0 0
SMALL
GASTEIGER

@<TRIPOS>ATOM
      1 C         142.4159  138.4493  158.3957 C.2     1  UNL1        0.3047
      2 O         143.6859  139.2453  158.4533 O.2     1  UNL1       -0.2647
      3 N         141.2383  138.8544  159.2318 N.am    1  UNL1       -0.2647
      4 C         140.9619  139.9562  160.2116 C.3     1  UNL1        0.1391
      5 C         139.5729  139.4273  160.4144 C.3     1  UNL1        0.2052
      6 C         139.8493  138.3256  159.4347 C.3     1  UNL1        0.1391
      7 C         142.7501  135.0809  156.4964 C.ar    1  UNL1        0.2501
      8 N         141.6118  135.7190  155.7567 N.ar    1  UNL1       -0.1068
      9 N         141.3481  137.0585  156.3782 N.ar    1  UNL1       -0.1021
     10 C         142.3233  137.2482  157.5019 C.ar    1  UNL1        0.3043
     11 O         143.1898  136.0260  157.5750 O.2     1  UNL1       -0.4122
     12 C         144.5328  131.0406  155.6315 C.ar    1  UNL1        0.1387
     13 C         143.5439  131.6437  154.6784 C.ar    1  UNL1        0.0371
     14 C         142.9497  132.9904  154.9667 C.ar    1  UNL1        0.0078
     15 C         143.3444  133.7341  156.2081 C.ar    1  UNL1        0.0553
     16 C         144.3332  133.1311  157.1612 C.ar    1  UNL1        0.0078
     17 C         144.9275  131.7843  156.8729 C.ar    1  UNL1        0.0371
     18 C         144.3753  128.4485  155.7093 C.3     1  UNL1        0.2525
     19 O         145.1270  129.6938  155.3432 O.3     1  UNL1       -0.4714
     20 O         138.3953  139.8324  161.2506 O.3     1  UNL1       -0.4756
     21 C         138.4390  139.6617  162.7402 C.ar    1  UNL1        0.1385
     22 C         138.0757  140.8076  163.6374 C.ar    1  UNL1        0.0366
     23 C         138.1194  140.6370  165.1270 C.ar    1  UNL1        0.0002
     24 C         138.5264  139.3204  165.7194 C.ar    1  UNL1       -0.0059
     25 C         138.8896  138.1745  164.8222 C.ar    1  UNL1        0.0002
     26 C         138.8460  138.3451  163.3326 C.ar    1  UNL1        0.0366
     27 C         138.5701  139.1497  167.2091 C.3     1  UNL1        0.0992
     28 N         139.4261  140.0563  168.0431 N.3     1  UNL1       -0.2687
     29 C         139.3818  140.5510  169.4584 C.3     1  UNL1        0.0761
     30 C         140.6366  141.3383  169.2225 C.3     1  UNL1        0.0592
     31 C         141.8829  142.0384  168.7681 C.3     1  UNL1        0.0372
     32 C         142.4130  142.8367  169.9221 C.3     1  UNL1        0.1423
     33 O         141.4944  142.6298  171.0897 O.3     1  UNL1       -0.3537
     34 C         140.3965  141.7038  170.6574 C.3     1  UNL1        0.1448
     35 C         140.6809  140.8435  167.8071 C.3     1  UNL1        0.0761
@<TRIPOS>BOND
     1    18    19    1
     2    19    12    1
     3    12    13   ar
     4    13    14   ar
     5    14    15   ar
     6    15     7    1
     7     7     8   ar
     8     8     9   ar
     9     9    10   ar
    10    10     1    1
    11     1     2    2
    12     1     3   am
    13     3     4    1
    14     4     5    1
    15     5    20    1
    16    20    21    1
    17    21    22   ar
    18    22    23   ar
    19    23    24   ar
    20    24    27    1
    21    27    28    1
    22    28    29    1
    23    29    30    1
    24    30    31    1
    25    31    32    1
    26    32    33    1
    27    33    34    1
    28    30    35    1
    29    24    25   ar
    30    25    26   ar
    31     5     6    1
    32    10    11   ar
    33    15    16   ar
    34    16    17   ar
    35    17    12   ar
    36    11     7   ar
    37     6     3    1
    38    26    21   ar
    39    35    28    1
    40    34    30    1
@<TRIPOS>MOLECULE
*****
 35 40 0 0 0
SMALL
GASTEIGER

@<TRIPOS>ATOM
      1 C         140.6662  144.0815  158.8437 C.2     1  UNL1        0.3047
      2 O         142.0471  144.3807  159.3471 O.2     1  UNL1       -0.2647
      3 N         139.8541  142.9942  159.4828 N.am    1  UNL1       -0.2647
      4 C         140.0760  142.0258  160.6066 C.3     1  UNL1        0.1391
      5 C         138.7057  141.4565  160.3866 C.3     1  UNL1        0.2052
      6 C         138.4838  142.4250  159.2628 C.3     1  UNL1        0.1391
      7 C         139.4731  146.7162  156.2553 C.ar    1  UNL1        0.2501
      8 N         138.9702  145.4485  155.6312 N.ar    1  UNL1       -0.1068
      9 N         139.3559  144.3071  156.5248 N.ar    1  UNL1       -0.1021
     10 C         140.0972  144.8696  157.7012 C.ar    1  UNL1        0.3043
     11 O         140.1696  146.3585  157.5347 O.2     1  UNL1       -0.4122
     12 C         138.9789  150.8649  154.5835 C.ar    1  UNL1        0.1387
     13 C         138.4059  150.5246  155.9274 C.ar    1  UNL1        0.0371
     14 C         138.5707  149.1417  156.4846 C.ar    1  UNL1        0.0078
     15 C         139.3084  148.0991  155.6980 C.ar    1  UNL1        0.0553
     16 C         139.8814  148.4394  154.3542 C.ar    1  UNL1        0.0078
     17 C         139.7166  149.8223  153.7970 C.ar    1  UNL1        0.0371
     18 C         138.3077  153.3543  154.9032 C.3     1  UNL1        0.2525
     19 O         138.8142  152.2478  154.0263 O.3     1  UNL1       -0.4714
     20 O         137.8937  140.3693  161.0257 O.3     1  UNL1       -0.4756
     21 C         138.0929  140.0377  162.4750 C.ar    1  UNL1        0.1385
     22 C         137.8194  141.0727  163.5256 C.ar    1  UNL1        0.0366
     23 C         138.0186  140.7413  164.9748 C.ar    1  UNL1        0.0002
     24 C         138.4912  139.3746  165.3735 C.ar    1  UNL1       -0.0059
     25 C         138.7647  138.3395  164.3228 C.ar    1  UNL1        0.0002
     26 C         138.5655  138.6710  162.8736 C.ar    1  UNL1        0.0366
     27 C         138.6904  139.0430  166.8228 C.3     1  UNL1        0.0992
     28 N         139.3622  140.0288  167.7322 N.3     1  UNL1       -0.2687
     29 C         139.3104  140.3217  169.2025 C.3     1  UNL1        0.0761
     30 C         140.3122  141.4228  169.0184 C.3     1  UNL1        0.0592
     31 C         141.3098  142.4645  168.6066 C.3     1  UNL1        0.0372
     32 C         141.7184  143.2253  169.8330 C.3     1  UNL1        0.1423
     33 O         140.9734  142.6539  171.0028 O.3     1  UNL1       -0.3537
     34 C         140.1043  141.5398  170.4993 C.3     1  UNL1        0.1448
     35 C         140.3640  141.1299  167.5482 C.3     1  UNL1        0.0761
@<TRIPOS>BOND
     1    18    19    1
     2    19    12    1
     3    12    13   ar
     4    13    14   ar
     5    14    15   ar
     6    15     7    1
     7     7     8   ar
     8     8     9   ar
     9     9    10   ar
    10    10     1    1
    11     1     2    2
    12     1     3   am
    13     3     4    1
    14     4     5    1
    15     5    20    1
    16    20    21    1
    17    21    22   ar
    18    22    23   ar
    19    23    24   ar
    20    24    27    1
    21    27    28    1
    22    28    29    1
    23    29    30    1
    24    30    31    1
    25    31    32    1
    26    32    33    1
    27    33    34    1
    28    30    35    1
    29    24    25   ar
    30    25    26   ar
    31     5     6    1
    32    10    11   ar
    33    15    16   ar
    34    16    17   ar
    35    17    12   ar
    36    11     7   ar
    37     6     3    1
    38    26    21   ar
    39    35    28    1
    40    34    30    1
@<TRIPOS>MOLECULE
*****
 35 40 0 0 0
SMALL
GASTEIGER

@<TRIPOS>ATOM
      1 C         139.1859  143.1723  160.7098 C.2     1  UNL1        0.3047
      2 O         139.6028  144.4892  160.1250 O.2     1  UNL1       -0.2647
      3 N         139.0568  141.9667  159.8267 N.am    1  UNL1       -0.2647
      4 C         139.2533  141.6973  158.3641 C.3     1  UNL1        0.1391
      5 C         138.8742  140.2617  158.5777 C.3     1  UNL1        0.2052
      6 C         138.6777  140.5311  160.0402 C.3     1  UNL1        0.1391
      7 C         139.0411  142.4283  164.5164 C.ar    1  UNL1        0.2501
      8 N         137.8691  143.3506  164.3566 N.ar    1  UNL1       -0.1068
      9 N         137.7806  143.7415  162.9112 N.ar    1  UNL1       -0.1021
     10 C         138.8980  143.0609  162.1777 C.ar    1  UNL1        0.3043
     11 O         139.6771  142.2493  163.1698 O.2     1  UNL1       -0.4122
     12 C         140.4096  140.5317  168.3610 C.ar    1  UNL1        0.1387
     13 C         140.8165  141.9374  168.0317 C.ar    1  UNL1        0.0371
     14 C         140.3603  142.5696  166.7502 C.ar    1  UNL1        0.0078
     15 C         139.4972  141.7961  165.7979 C.ar    1  UNL1        0.0553
     16 C         139.0903  140.3904  166.1272 C.ar    1  UNL1        0.0078
     17 C         139.5465  139.7582  167.4087 C.ar    1  UNL1        0.0371
     18 C         140.6535  140.6099  170.9464 C.3     1  UNL1        0.2525
     19 O         140.8658  139.8995  169.6425 O.3     1  UNL1       -0.4714
     20 O         138.7451  139.0561  157.6946 O.3     1  UNL1       -0.4756
     21 C         139.9583  138.2420  157.3548 C.ar    1  UNL1        0.1385
     22 C         139.9057  137.2515  156.2296 C.ar    1  UNL1        0.0366
     23 C         141.1187  136.4373  155.8897 C.ar    1  UNL1        0.0002
     24 C         142.3845  136.6137  156.6751 C.ar    1  UNL1       -0.0059
     25 C         142.4371  137.6043  157.8003 C.ar    1  UNL1        0.0002
     26 C         141.2240  138.4185  158.1401 C.ar    1  UNL1        0.0366
     27 C         143.5977  135.7996  156.3353 C.3     1  UNL1        0.0992
     28 N         143.6107  134.3242  156.6058 N.3     1  UNL1       -0.2687
     29 C         144.4390  133.4095  157.4586 C.3     1  UNL1        0.0761
     30 C         143.6291  132.2378  156.9885 C.3     1  UNL1        0.0592
     31 C         142.6996  131.2235  156.3907 C.3     1  UNL1        0.0372
     32 C         143.0700  129.8766  156.9371 C.3     1  UNL1        0.1423
     33 O         144.2284  130.0584  157.8726 O.3     1  UNL1       -0.3537
     34 C         144.5739  131.5177  157.9043 C.3     1  UNL1        0.1448
     35 C         142.8008  133.1525  156.1357 C.3     1  UNL1        0.0761
@<TRIPOS>BOND
     1    18    19    1
     2    19    12    1
     3    12    13   ar
     4    13    14   ar
     5    14    15   ar
     6    15     7    1
     7     7     8   ar
     8     8     9   ar
     9     9    10   ar
    10    10     1    1
    11     1     2    2
    12     1     3   am
    13     3     4    1
    14     4     5    1
    15     5    20    1
    16    20    21    1
    17    21    22   ar
    18    22    23   ar
    19    23    24   ar
    20    24    27    1
    21    27    28    1
    22    28    29    1
    23    29    30    1
    24    30    31    1
    25    31    32    1
    26    32    33    1
    27    33    34    1
    28    30    35    1
    29    24    25   ar
    30    25    26   ar
    31     5     6    1
    32    10    11   ar
    33    15    16   ar
    34    16    17   ar
    35    17    12   ar
    36    11     7   ar
    37     6     3    1
    38    26    21   ar
    39    35    28    1
    40    34    30    1
@<TRIPOS>MOLECULE
*****
 35 40 0 0 0
SMALL
GASTEIGER

@<TRIPOS>ATOM
      1 C         141.4503  137.8430  157.6498 C.2     1  UNL1        0.3047
      2 O         139.9950  137.8950  157.2900 O.2     1  UNL1       -0.2647
      3 N         141.9817  138.7102  158.7522 N.am    1  UNL1       -0.2647
      4 C         141.3862  139.7200  159.6881 C.3     1  UNL1        0.1391
      5 C         142.7333  139.9368  160.3114 C.3     1  UNL1        0.2052
      6 C         143.3288  138.9270  159.3755 C.3     1  UNL1        0.1391
      7 C         143.3679  134.9239  155.9565 C.ar    1  UNL1        0.2501
      8 N         144.2238  136.0943  155.5725 N.ar    1  UNL1       -0.1068
      9 N         143.6097  137.3302  156.1601 N.ar    1  UNL1       -0.1021
     10 C         142.3742  136.9237  156.9072 C.ar    1  UNL1        0.3043
     11 O         142.2247  135.4365  156.7814 O.2     1  UNL1       -0.4122
     12 C         144.1005  130.6288  154.8313 C.ar    1  UNL1        0.1387
     13 C         143.1165  131.4508  154.0528 C.ar    1  UNL1        0.0371
     14 C         142.8723  132.8825  154.4278 C.ar    1  UNL1        0.0078
     15 C         143.6121  133.4922  155.5815 C.ar    1  UNL1        0.0553
     16 C         144.5961  132.6703  156.3600 C.ar    1  UNL1        0.0078
     17 C         144.8403  131.2386  155.9849 C.ar    1  UNL1        0.0371
     18 C         145.1894  128.3247  155.3367 C.3     1  UNL1        0.2525
     19 O         144.3447  129.1972  154.4562 O.3     1  UNL1       -0.4714
     20 O         143.2648  140.8040  161.4139 O.3     1  UNL1       -0.4756
     21 C         143.1832  140.3406  162.8381 C.ar    1  UNL1        0.1385
     22 C         141.8937  140.4645  163.5944 C.ar    1  UNL1        0.0366
     23 C         141.8121  140.0011  165.0187 C.ar    1  UNL1        0.0002
     24 C         143.0199  139.4138  165.6867 C.ar    1  UNL1       -0.0059
     25 C         144.3094  139.2899  164.9304 C.ar    1  UNL1        0.0002
     26 C         144.3910  139.7533  163.5061 C.ar    1  UNL1        0.0366
     27 C         142.9383  138.9504  167.1110 C.3     1  UNL1        0.0992
     28 N         142.3136  139.8316  168.1518 N.3     1  UNL1       -0.2687
     29 C         142.7251  140.3303  169.5053 C.3     1  UNL1        0.0761
     30 C         141.4301  141.0778  169.6237 C.3     1  UNL1        0.0592
     31 C         140.0865  141.7380  169.5289 C.3     1  UNL1        0.0372
     32 C         139.8653  142.5217  170.7886 C.3     1  UNL1        0.1423
     33 O         141.0721  142.3458  171.6619 O.3     1  UNL1       -0.3537
     34 C         142.0392  141.4534  170.9420 C.3     1  UNL1        0.1448
     35 C         141.0185  140.5791  168.2702 C.3     1  UNL1        0.0761
@<TRIPOS>BOND
     1    18    19    1
     2    19    12    1
     3    12    13   ar
     4    13    14   ar
     5    14    15   ar
     6    15     7    1
     7     7     8   ar
     8     8     9   ar
     9     9    10   ar
    10    10     1    1
    11     1     2    2
    12     1     3   am
    13     3     4    1
    14     4     5    1
    15     5    20    1
    16    20    21    1
    17    21    22   ar
    18    22    23   ar
    19    23    24   ar
    20    24    27    1
    21    27    28    1
    22    28    29    1
    23    29    30    1
    24    30    31    1
    25    31    32    1
    26    32    33    1
    27    33    34    1
    28    30    35    1
    29    24    25   ar
    30    25    26   ar
    31     5     6    1
    32    10    11   ar
    33    15    16   ar
    34    16    17   ar
    35    17    12   ar
    36    11     7   ar
    37     6     3    1
    38    26    21   ar
    39    35    28    1
    40    34    30    1
@<TRIPOS>MOLECULE
*****
 35 40 0 0 0
SMALL
GASTEIGER

@<TRIPOS>ATOM
      1 C         141.9914  138.8956  157.5333 C.2     1  UNL1        0.3047
      2 O         140.5024  138.9085  157.3522 O.2     1  UNL1       -0.2647
      3 N         142.6652  140.0056  158.2843 N.am    1  UNL1       -0.2647
      4 C         142.2009  141.2542  158.9741 C.3     1  UNL1        0.1391
      5 C         143.6180  141.5754  159.3464 C.3     1  UNL1        0.2052
      6 C         144.0823  140.3269  158.6567 C.3     1  UNL1        0.1391
      7 C         143.6333  135.5490  156.4519 C.ar    1  UNL1        0.2501
      8 N         144.4891  136.5410  155.7216 N.ar    1  UNL1       -0.1068
      9 N         143.9782  137.9154  156.0378 N.ar    1  UNL1       -0.1021
     10 C         142.8067  137.7728  156.9635 C.ar    1  UNL1        0.3043
     11 O         142.5934  136.3103  157.2195 O.2     1  UNL1       -0.4122
     12 C         144.1026  131.0745  156.3571 C.ar    1  UNL1        0.1387
     13 C         144.5239  131.8473  157.5717 C.ar    1  UNL1        0.0371
     14 C         144.3674  133.3388  157.6033 C.ar    1  UNL1        0.0078
     15 C         143.7897  134.0575  156.4202 C.ar    1  UNL1        0.0553
     16 C         143.3684  133.2847  155.2056 C.ar    1  UNL1        0.0078
     17 C         143.5249  131.7932  155.1740 C.ar    1  UNL1        0.0371
     18 C         144.5440  128.8318  157.5922 C.3     1  UNL1        0.2525
     19 O         144.2591  129.5830  156.3255 O.3     1  UNL1       -0.4714
     20 O         144.2918  142.6854  160.0974 O.3     1  UNL1       -0.4756
     21 C         144.1983  142.7434  161.5934 C.ar    1  UNL1        0.1385
     22 C         145.2297  142.0539  162.4366 C.ar    1  UNL1        0.0366
     23 C         145.1363  142.1119  163.9325 C.ar    1  UNL1        0.0002
     24 C         144.0116  142.8595  164.5853 C.ar    1  UNL1       -0.0059
     25 C         142.9803  143.5490  163.7421 C.ar    1  UNL1        0.0002
     26 C         143.0736  143.4910  162.2462 C.ar    1  UNL1        0.0366
     27 C         143.9182  142.9175  166.0813 C.3     1  UNL1        0.0992
     28 N         142.8526  142.1414  166.7969 N.3     1  UNL1       -0.2687
     29 C         142.6839  141.6055  168.1877 C.3     1  UNL1        0.0761
     30 C         141.3456  141.0437  167.8089 C.3     1  UNL1        0.0592
     31 C         140.0502  140.5727  167.2172 C.3     1  UNL1        0.0372
     32 C         139.2924  139.8402  168.2845 C.3     1  UNL1        0.1423
     33 O         140.1194  139.8585  169.5358 O.3     1  UNL1       -0.3537
     34 C         141.3884  140.6023  169.2419 C.3     1  UNL1        0.1448
     35 C         141.5143  141.5796  166.4181 C.3     1  UNL1        0.0761
@<TRIPOS>BOND
     1    18    19    1
     2    19    12    1
     3    12    13   ar
     4    13    14   ar
     5    14    15   ar
     6    15     7    1
     7     7     8   ar
     8     8     9   ar
     9     9    10   ar
    10    10     1    1
    11     1     2    2
    12     1     3   am
    13     3     4    1
    14     4     5    1
    15     5    20    1
    16    20    21    1
    17    21    22   ar
    18    22    23   ar
    19    23    24   ar
    20    24    27    1
    21    27    28    1
    22    28    29    1
    23    29    30    1
    24    30    31    1
    25    31    32    1
    26    32    33    1
    27    33    34    1
    28    30    35    1
    29    24    25   ar
    30    25    26   ar
    31     5     6    1
    32    10    11   ar
    33    15    16   ar
    34    16    17   ar
    35    17    12   ar
    36    11     7   ar
    37     6     3    1
    38    26    21   ar
    39    35    28    1
    40    34    30    1
@<TRIPOS>MOLECULE
*****
 35 40 0 0 0
SMALL
GASTEIGER

@<TRIPOS>ATOM
      1 C         144.1136  140.2498  156.8502 C.2     1  UNL1        0.3047
      2 O         144.8806  140.5468  155.5958 O.2     1  UNL1       -0.2647
      3 N         144.1896  141.1904  158.0161 N.am    1  UNL1       -0.2647
      4 C         144.9007  142.4820  158.2924 C.3     1  UNL1        0.1391
      5 C         144.2971  142.5207  159.6651 C.3     1  UNL1        0.2052
      6 C         143.5860  141.2291  159.3889 C.3     1  UNL1        0.1391
      7 C         142.5381  136.7030  156.7932 C.ar    1  UNL1        0.2501
      8 N         141.4083  137.5129  157.3565 N.ar    1  UNL1       -0.1068
      9 N         141.8610  138.9402  157.4465 N.ar    1  UNL1       -0.1021
     10 C         143.2705  139.0123  156.9387 C.ar    1  UNL1        0.3043
     11 O         143.6891  137.6297  156.5349 O.2     1  UNL1       -0.4122
     12 C         142.4847  132.2712  156.0146 C.ar    1  UNL1        0.1387
     13 C         143.2978  132.8239  157.1474 C.ar    1  UNL1        0.0371
     14 C         143.3156  134.3012  157.4069 C.ar    1  UNL1        0.0078
     15 C         142.5203  135.2257  156.5336 C.ar    1  UNL1        0.0553
     16 C         141.7072  134.6730  155.4008 C.ar    1  UNL1        0.0078
     17 C         141.6894  133.1957  155.1413 C.ar    1  UNL1        0.0371
     18 C         143.3895  130.2010  154.7318 C.3     1  UNL1        0.2525
     19 O         142.4669  130.7939  155.7551 O.3     1  UNL1       -0.4714
     20 O         144.3732  143.4613  160.8311 O.3     1  UNL1       -0.4756
     21 C         144.0643  142.9684  162.2137 C.ar    1  UNL1        0.1385
     22 C         144.9195  141.9071  162.8400 C.ar    1  UNL1        0.0366
     23 C         144.6107  141.4142  164.2226 C.ar    1  UNL1        0.0002
     24 C         143.4467  141.9826  164.9789 C.ar    1  UNL1       -0.0059
     25 C         142.5915  143.0439  164.3526 C.ar    1  UNL1        0.0002
     26 C         142.9003  143.5369  162.9700 C.ar    1  UNL1        0.0366
     27 C         143.1378  141.4896  166.3616 C.3     1  UNL1        0.0992
     28 N         141.8206  140.8310  166.6462 N.3     1  UNL1       -0.2687
     29 C         140.9731  140.6387  167.8688 C.3     1  UNL1        0.0761
     30 C         139.9577  139.8995  167.0487 C.3     1  UNL1        0.0592
     31 C         139.0874  139.1995  166.0474 C.3     1  UNL1        0.0372
     32 C         137.8713  138.6926  166.7645 C.3     1  UNL1        0.1423
     33 O         137.9900  139.0793  168.2089 O.3     1  UNL1       -0.3537
     34 C         139.2795  139.8253  168.3846 C.3     1  UNL1        0.1448
     35 C         140.8052  140.0918  165.8261 C.3     1  UNL1        0.0761
@<TRIPOS>BOND
     1    18    19    1
     2    19    12    1
     3    12    13   ar
     4    13    14   ar
     5    14    15   ar
     6    15     7    1
     7     7     8   ar
     8     8     9   ar
     9     9    10   ar
    10    10     1    1
    11     1     2    2
    12     1     3   am
    13     3     4    1
    14     4     5    1
    15     5    20    1
    16    20    21    1
    17    21    22   ar
    18    22    23   ar
    19    23    24   ar
    20    24    27    1
    21    27    28    1
    22    28    29    1
    23    29    30    1
    24    30    31    1
    25    31    32    1
    26    32    33    1
    27    33    34    1
    28    30    35    1
    29    24    25   ar
    30    25    26   ar
    31     5     6    1
    32    10    11   ar
    33    15    16   ar
    34    16    17   ar
    35    17    12   ar
    36    11     7   ar
    37     6     3    1
    38    26    21   ar
    39    35    28    1
    40    34    30    1
@<TRIPOS>MOLECULE
*****
 35 40 0 0 0
SMALL
GASTEIGER

@<TRIPOS>ATOM
      1 C         139.8100  139.2552  157.3684 C.2     1  UNL1        0.3047
      2 O         139.2386  140.0236  156.2139 O.2     1  UNL1       -0.2647
      3 N         139.1853  139.3686  158.7274 N.am    1  UNL1       -0.2647
      4 C         138.0220  140.1225  159.3005 C.3     1  UNL1        0.1391
      5 C         138.3019  139.5290  160.6494 C.3     1  UNL1        0.2052
      6 C         139.4652  138.7751  160.0764 C.3     1  UNL1        0.1391
      7 C         142.3955  136.4495  156.6554 C.ar    1  UNL1        0.2501
      8 N         143.2977  137.5831  157.0437 N.ar    1  UNL1       -0.1068
      9 N         142.4390  138.7721  157.3580 N.ar    1  UNL1       -0.1021
     10 C         141.0061  138.3733  157.1640 C.ar    1  UNL1        0.3043
     11 O         140.9792  136.9378  156.7298 O.2     1  UNL1       -0.4122
     12 C         143.7072  132.3099  155.4748 C.ar    1  UNL1        0.1387
     13 C         144.0029  132.8262  156.8518 C.ar    1  UNL1        0.0371
     14 C         143.5656  134.2061  157.2453 C.ar    1  UNL1        0.0078
     15 C         142.8327  135.0696  156.2618 C.ar    1  UNL1        0.0553
     16 C         142.5371  134.5533  154.8849 C.ar    1  UNL1        0.0078
     17 C         142.9744  133.1734  154.4914 C.ar    1  UNL1        0.0371
     18 C         143.7703  130.3795  153.7372 C.3     1  UNL1        0.2525
     19 O         144.1445  130.9300  155.0813 O.3     1  UNL1       -0.4714
     20 O         137.6773  139.6424  162.0085 O.3     1  UNL1       -0.4756
     21 C         138.3131  140.5071  163.0563 C.ar    1  UNL1        0.1385
     22 C         138.3213  140.0650  164.4897 C.ar    1  UNL1        0.0366
     23 C         138.9571  140.9296  165.5376 C.ar    1  UNL1        0.0002
     24 C         139.5848  142.2363  165.1521 C.ar    1  UNL1       -0.0059
     25 C         139.5766  142.6783  163.7188 C.ar    1  UNL1        0.0002
     26 C         138.9408  141.8138  162.6709 C.ar    1  UNL1        0.0366
     27 C         140.2207  143.1009  166.2001 C.3     1  UNL1        0.0992
     28 N         140.7518  142.4843  167.4602 N.3     1  UNL1       -0.2687
     29 C         140.4003  142.5756  168.9156 C.3     1  UNL1        0.0761
     30 C         141.5028  141.6123  169.2422 C.3     1  UNL1        0.0592
     31 C         142.6467  140.6467  169.3371 C.3     1  UNL1        0.0372
     32 C         142.8341  140.2907  170.7821 C.3     1  UNL1        0.1423
     33 O         141.8060  141.0364  171.5803 O.3     1  UNL1       -0.3537
     34 C         140.9832  141.8532  170.6285 C.3     1  UNL1        0.1448
     35 C         141.8543  141.5211  167.7868 C.3     1  UNL1        0.0761
@<TRIPOS>BOND
     1    18    19    1
     2    19    12    1
     3    12    13   ar
     4    13    14   ar
     5    14    15   ar
     6    15     7    1
     7     7     8   ar
     8     8     9   ar
     9     9    10   ar
    10    10     1    1
    11     1     2    2
    12     1     3   am
    13     3     4    1
    14     4     5    1
    15     5    20    1
    16    20    21    1
    17    21    22   ar
    18    22    23   ar
    19    23    24   ar
    20    24    27    1
    21    27    28    1
    22    28    29    1
    23    29    30    1
    24    30    31    1
    25    31    32    1
    26    32    33    1
    27    33    34    1
    28    30    35    1
    29    24    25   ar
    30    25    26   ar
    31     5     6    1
    32    10    11   ar
    33    15    16   ar
    34    16    17   ar
    35    17    12   ar
    36    11     7   ar
    37     6     3    1
    38    26    21   ar
    39    35    28    1
    40    34    30    1
@<TRIPOS>MOLECULE
*****
 35 40 0 0 0
SMALL
GASTEIGER

@<TRIPOS>ATOM
      1 C         138.5148  141.7068  156.2158 C.2     1  UNL1        0.3047
      2 O         139.5222  141.8948  155.1206 O.2     1  UNL1       -0.2647
      3 N         138.7516  142.3169  157.5655 N.am    1  UNL1       -0.2647
      4 C         139.8384  143.1509  158.1766 C.3     1  UNL1        0.1391
      5 C         139.0866  143.1798  159.4744 C.3     1  UNL1        0.2052
      6 C         137.9998  142.3457  158.8632 C.3     1  UNL1        0.1391
      7 C         134.9432  140.2247  155.8808 C.ar    1  UNL1        0.2501
      8 N         135.7679  139.1367  155.2596 N.ar    1  UNL1       -0.1068
      9 N         137.2062  139.5595  155.3095 N.ar    1  UNL1       -0.1021
     10 C         137.2704  140.9087  155.9615 C.ar    1  UNL1        0.3043
     11 O         135.8718  141.3199  156.3146 O.2     1  UNL1       -0.4122
     12 C         130.4687  140.2067  156.3591 C.ar    1  UNL1        0.1387
     13 C         131.1361  141.3064  155.5875 C.ar    1  UNL1        0.0371
     14 C         132.6276  141.3123  155.4281 C.ar    1  UNL1        0.0078
     15 C         133.4517  140.2186  156.0402 C.ar    1  UNL1        0.0553
     16 C         132.7842  139.1190  156.8118 C.ar    1  UNL1        0.0078
     17 C         131.2927  139.1130  156.9712 C.ar    1  UNL1        0.0371
     18 C         128.3635  139.7709  157.8179 C.3     1  UNL1        0.2525
     19 O         128.9772  140.2008  156.5185 O.3     1  UNL1       -0.4714
     20 O         139.3234  143.7898  160.8240 O.3     1  UNL1       -0.4756
     21 C         139.2718  142.9328  162.0540 C.ar    1  UNL1        0.1385
     22 C         140.3948  141.9852  162.3554 C.ar    1  UNL1        0.0366
     23 C         140.3433  141.1281  163.5853 C.ar    1  UNL1        0.0002
     24 C         139.1687  141.2187  164.5138 C.ar    1  UNL1       -0.0059
     25 C         138.0457  142.1663  164.2124 C.ar    1  UNL1        0.0002
     26 C         138.0972  143.0234  162.9825 C.ar    1  UNL1        0.0366
     27 C         139.1171  140.3616  165.7439 C.3     1  UNL1        0.0992
     28 N         139.6324  140.8912  167.0492 N.3     1  UNL1       -0.2687
     29 C         140.3610  142.1305  167.4776 C.3     1  UNL1        0.0761
     30 C         140.3611  141.6403  168.8953 C.3     1  UNL1        0.0592
     31 C         140.2473  140.9624  170.2284 C.3     1  UNL1        0.0372
     32 C         140.8965  141.8440  171.2537 C.3     1  UNL1        0.1423
     33 O         141.4116  143.0669  170.5542 O.3     1  UNL1       -0.3537
     34 C         141.0807  142.9410  169.0965 C.3     1  UNL1        0.1448
     35 C         139.6326  140.4011  168.4669 C.3     1  UNL1        0.0761
@<TRIPOS>BOND
     1    18    19    1
     2    19    12    1
     3    12    13   ar
     4    13    14   ar
     5    14    15   ar
     6    15     7    1
     7     7     8   ar
     8     8     9   ar
     9     9    10   ar
    10    10     1    1
    11     1     2    2
    12     1     3   am
    13     3     4    1
    14     4     5    1
    15     5    20    1
    16    20    21    1
    17    21    22   ar
    18    22    23   ar
    19    23    24   ar
    20    24    27    1
    21    27    28    1
    22    28    29    1
    23    29    30    1
    24    30    31    1
    25    31    32    1
    26    32    33    1
    27    33    34    1
    28    30    35    1
    29    24    25   ar
    30    25    26   ar
    31     5     6    1
    32    10    11   ar
    33    15    16   ar
    34    16    17   ar
    35    17    12   ar
    36    11     7   ar
    37     6     3    1
    38    26    21   ar
    39    35    28    1
    40    34    30    1
@<TRIPOS>MOLECULE
*****
 35 40 0 0 0
SMALL
GASTEIGER

@<TRIPOS>ATOM
      1 C         142.9851  138.2059  156.7495 C.2     1  UNL1        0.3047
      2 O         144.1105  139.1898  156.6256 O.2     1  UNL1       -0.2647
      3 N         141.7492  138.5728  157.5164 N.am    1  UNL1       -0.2647
      4 C         141.2897  139.7853  158.2705 C.3     1  UNL1        0.1391
      5 C         140.0014  139.0916  158.6009 C.3     1  UNL1        0.2052
      6 C         140.4609  137.8790  157.8467 C.3     1  UNL1        0.1391
      7 C         143.4908  134.4843  155.7703 C.ar    1  UNL1        0.2501
      8 N         143.0399  135.0688  154.4646 N.ar    1  UNL1       -0.1068
      9 N         142.7955  136.5341  154.6725 N.ar    1  UNL1       -0.1021
     10 C         143.0954  136.8552  156.1066 C.ar    1  UNL1        0.3043
     11 O         143.5251  135.5883  156.7851 O.2     1  UNL1       -0.4122
     12 C         144.5538  130.1751  156.5125 C.ar    1  UNL1        0.1387
     13 C         143.9827  130.5894  155.1889 C.ar    1  UNL1        0.0371
     14 C         143.6283  132.0258  154.9415 C.ar    1  UNL1        0.0078
     15 C         143.8452  133.0479  156.0177 C.ar    1  UNL1        0.0553
     16 C         144.4163  132.6336  157.3414 C.ar    1  UNL1        0.0078
     17 C         144.7707  131.1972  157.5888 C.ar    1  UNL1        0.0371
     18 C         144.7659  127.7306  155.6583 C.3     1  UNL1        0.2525
     19 O         144.9082  128.7387  156.7599 O.3     1  UNL1       -0.4714
     20 O         138.7655  139.4584  159.3677 O.3     1  UNL1       -0.4756
     21 C         138.7108  139.2406  160.8508 C.ar    1  UNL1        0.1385
     22 C         139.3868  138.0477  161.4591 C.ar    1  UNL1        0.0366
     23 C         139.3322  137.8298  162.9421 C.ar    1  UNL1        0.0002
     24 C         138.6015  138.8049  163.8169 C.ar    1  UNL1       -0.0059
     25 C         137.9255  139.9978  163.2087 C.ar    1  UNL1        0.0002
     26 C         137.9801  140.2157  161.7256 C.ar    1  UNL1        0.0366
     27 C         138.5469  138.5871  165.3001 C.3     1  UNL1        0.0992
     28 N         139.2769  139.5180  166.2223 N.3     1  UNL1       -0.2687
     29 C         140.3398  140.5626  166.0516 C.3     1  UNL1        0.0761
     30 C         140.3094  140.8346  167.5264 C.3     1  UNL1        0.0592
     31 C         140.1130  140.9398  169.0098 C.3     1  UNL1        0.0372
     32 C         141.0463  141.9940  169.5272 C.3     1  UNL1        0.1423
     33 O         141.8194  142.5403  168.3636 O.3     1  UNL1       -0.3537
     34 C         141.3639  141.8237  167.1271 C.3     1  UNL1        0.1448
     35 C         139.2465  139.7900  167.6971 C.3     1  UNL1        0.0761
@<TRIPOS>BOND
     1    18    19    1
     2    19    12    1
     3    12    13   ar
     4    13    14   ar
     5    14    15   ar
     6    15     7    1
     7     7     8   ar
     8     8     9   ar
     9     9    10   ar
    10    10     1    1
    11     1     2    2
    12     1     3   am
    13     3     4    1
    14     4     5    1
    15     5    20    1
    16    20    21    1
    17    21    22   ar
    18    22    23   ar
    19    23    24   ar
    20    24    27    1
    21    27    28    1
    22    28    29    1
    23    29    30    1
    24    30    31    1
    25    31    32    1
    26    32    33    1
    27    33    34    1
    28    30    35    1
    29    24    25   ar
    30    25    26   ar
    31     5     6    1
    32    10    11   ar
    33    15    16   ar
    34    16    17   ar
    35    17    12   ar
    36    11     7   ar
    37     6     3    1
    38    26    21   ar
    39    35    28    1
    40    34    30    1
