@<TRIPOS>MOLECULE
*****
 38 41 0 0 0
SMALL
GASTEIGER

@<TRIPOS>ATOM
      1 N         142.6459  138.5821  163.1684 N.3     1  UNL1       -0.2711
      2 C         143.7698  138.4491  162.1839 C.3     1  UNL1        0.0933
      3 C         142.8676  137.6903  161.2565 C.3     1  UNL1        0.1035
      4 C         141.7437  137.8233  162.2409 C.3     1  UNL1        0.0933
      5 C         142.1757  140.4741  167.2242 C.3     1  UNL1        0.0416
      6 C         141.6610  141.1783  166.0038 C.3     1  UNL1        0.0073
      7 C         141.8178  140.5477  164.6519 C.3     1  UNL1        0.0163
      8 C         142.4892  139.2128  164.5203 C.3     1  UNL1        0.0576
      9 C         143.0039  138.5085  165.7406 C.3     1  UNL1        0.0163
     10 C         142.8471  139.1393  167.0926 C.3     1  UNL1        0.0073
     11 N         139.8089  139.7869  168.9347 N.pl3   1  UNL1       -0.3561
     12 C         140.8355  140.7612  169.4313 C.ar    1  UNL1        0.0553
     13 C         140.6788  141.3919  170.7832 C.ar    1  UNL1        0.0169
     14 C         141.7055  142.3662  171.2799 C.ar    1  UNL1        0.0219
     15 C         142.8889  142.7098  170.4246 C.ar    1  UNL1        0.0985
     16 N         143.0456  142.0791  169.0728 N.ar    1  UNL1       -0.2469
     17 C         142.0189  141.1048  168.5761 C.ar    1  UNL1        0.0714
     18 H         139.0321  139.5614  169.4960 H       1  UNL1        0.1424
     19 H         139.9117  139.3729  168.0474 H       1  UNL1        0.1424
     20 N         143.0244  137.0596  159.9046 N.am    1  UNL1       -0.3018
     21 C         142.6871  137.8405  158.6691 C.2     1  UNL1        0.2426
     22 O         142.1930  139.2520  158.7854 O.2     1  UNL1       -0.2733
     23 H         143.3486  136.1332  159.8282 H       1  UNL1        0.1495
     24 C         142.8438  137.2098  157.3171 C.3     1  UNL1        0.1759
     25 N         142.9798  135.7209  157.1953 N.am    1  UNL1       -0.2931
     26 C         142.0963  134.9619  156.2502 C.2     1  UNL1        0.2462
     27 O         141.0768  135.6918  155.4267 O.2     1  UNL1       -0.2701
     28 H         143.6489  135.2418  157.7357 H       1  UNL1        0.1502
     29 C         142.2322  133.4731  156.1284 C.ar    1  UNL1        0.0533
     30 C         141.4033  132.7236  155.1278 C.ar    1  UNL1        0.0045
     31 C         141.5392  131.2348  155.0060 C.ar    1  UNL1        0.0001
     32 C         142.5040  130.4954  155.8848 C.ar    1  UNL1        0.0039
     33 C         143.3330  131.2448  156.8854 C.ar    1  UNL1        0.0716
     34 C         143.1971  132.7337  157.0072 C.ar    1  UNL1        0.0084
     35 C         144.2979  130.5054  157.7642 C.3     1  UNL1        0.4186
     36 F         145.2627  129.7660  158.6430 F       1  UNL1       -0.1659
     37 F         144.9599  131.8013  158.1277 F       1  UNL1       -0.1659
     38 F         143.6357  129.2094  157.4007 F       1  UNL1       -0.1659
@<TRIPOS>BOND
     1    11    12    1
     2    12    13   ar
     3    13    14   ar
     4    14    15   ar
     5    15    16   ar
     6    16    17   ar
     7     5    17    1
     8     5     6    1
     9     6     7    1
    10     7     8    1
    11     8     1    1
    12     1     2    1
    13     2     3    1
    14     3    20    1
    15    20    21   am
    16    21    22    2
    17    21    24    1
    18    24    25    1
    19    25    26   am
    20    26    27    2
    21    26    29    1
    22    29    30   ar
    23    30    31   ar
    24    31    32   ar
    25    32    33   ar
    26    33    35    1
    27    35    36    1
    28    35    37    1
    29    35    38    1
    30    33    34   ar
    31     3     4    1
    32     8     9    1
    33     9    10    1
    34    17    12   ar
    35    10     5    1
    36     4     1    1
    37    34    29   ar
    38    11    18    1
    39    11    19    1
    40    20    23    1
    41    25    28    1
@<TRIPOS>MOLECULE
*****
 38 41 0 0 0
SMALL
GASTEIGER

@<TRIPOS>ATOM
      1 N         142.6948  139.1457  162.8194 N.3     1  UNL1       -0.2711
      2 C         143.7311  139.5359  161.8074 C.3     1  UNL1        0.0933
      3 C         143.0779  138.6431  160.7944 C.3     1  UNL1        0.1035
      4 C         142.0417  138.2529  161.8063 C.3     1  UNL1        0.0933
      5 C         141.8823  140.2121  167.1150 C.3     1  UNL1        0.0416
      6 C         141.1186  140.8904  166.0165 C.3     1  UNL1        0.0073
      7 C         141.3895  140.5350  164.5846 C.3     1  UNL1        0.0163
      8 C         142.4240  139.5012  164.2512 C.3     1  UNL1        0.0576
      9 C         143.1877  138.8229  165.3497 C.3     1  UNL1        0.0163
     10 C         142.9168  139.1784  166.7817 C.3     1  UNL1        0.0073
     11 N         143.3656  142.4787  168.4043 N.pl3   1  UNL1       -0.3561
     12 C         142.3530  141.7009  169.1915 C.ar    1  UNL1        0.0553
     13 C         142.0821  142.0563  170.6234 C.ar    1  UNL1        0.0169
     14 C         141.0696  141.2785  171.4106 C.ar    1  UNL1        0.0219
     15 C         140.3279  140.1452  170.7660 C.ar    1  UNL1        0.0985
     16 N         140.5988  139.7898  169.3341 N.ar    1  UNL1       -0.2469
     17 C         141.6114  140.5676  168.5469 C.ar    1  UNL1        0.0714
     18 H         143.8524  143.2225  168.8275 H       1  UNL1        0.1424
     19 H         143.5434  142.2454  167.4646 H       1  UNL1        0.1424
     20 N         143.3487  138.2876  159.3625 N.am    1  UNL1       -0.3018
     21 C         142.9550  139.2340  158.2674 C.2     1  UNL1        0.2426
     22 O         142.2905  140.5359  158.6041 O.2     1  UNL1       -0.2733
     23 H         143.7849  137.4332  159.1415 H       1  UNL1        0.1495
     24 C         143.2259  138.8785  156.8355 C.3     1  UNL1        0.1759
     25 N         143.5980  137.4723  156.4693 N.am    1  UNL1       -0.2931
     26 C         142.5272  136.4412  156.2688 C.2     1  UNL1        0.2462
     27 O         141.0843  136.8163  156.4344 O.2     1  UNL1       -0.2701
     28 H         144.5450  137.2261  156.3606 H       1  UNL1        0.1502
     29 C         142.8993  135.0350  155.9027 C.ar    1  UNL1        0.0533
     30 C         142.4203  134.4449  154.6095 C.ar    1  UNL1        0.0045
     31 C         142.7924  133.0387  154.2433 C.ar    1  UNL1        0.0001
     32 C         143.6434  132.2225  155.1704 C.ar    1  UNL1        0.0039
     33 C         144.1224  132.8125  156.4636 C.ar    1  UNL1        0.0716
     34 C         143.7504  134.2187  156.8298 C.ar    1  UNL1        0.0084
     35 C         144.9734  131.9963  157.3907 C.3     1  UNL1        0.4186
     36 F         145.8245  131.1801  158.3178 F       1  UNL1       -0.1659
     37 F         144.9122  133.0928  158.4124 F       1  UNL1       -0.1659
     38 F         145.0347  130.8997  156.3690 F       1  UNL1       -0.1659
@<TRIPOS>BOND
     1    11    12    1
     2    12    13   ar
     3    13    14   ar
     4    14    15   ar
     5    15    16   ar
     6    16    17   ar
     7     5    17    1
     8     5     6    1
     9     6     7    1
    10     7     8    1
    11     8     1    1
    12     1     2    1
    13     2     3    1
    14     3    20    1
    15    20    21   am
    16    21    22    2
    17    21    24    1
    18    24    25    1
    19    25    26   am
    20    26    27    2
    21    26    29    1
    22    29    30   ar
    23    30    31   ar
    24    31    32   ar
    25    32    33   ar
    26    33    35    1
    27    35    36    1
    28    35    37    1
    29    35    38    1
    30    33    34   ar
    31     3     4    1
    32     8     9    1
    33     9    10    1
    34    17    12   ar
    35    10     5    1
    36     4     1    1
    37    34    29   ar
    38    11    18    1
    39    11    19    1
    40    20    23    1
    41    25    28    1
@<TRIPOS>MOLECULE
*****
 38 41 0 0 0
SMALL
GASTEIGER

@<TRIPOS>ATOM
      1 N         141.5301  139.3018  162.5280 N.3     1  UNL1       -0.2711
      2 C         141.6346  140.0328  161.2224 C.3     1  UNL1        0.0933
      3 C         141.6254  138.7243  160.4891 C.3     1  UNL1        0.1035
      4 C         141.5209  137.9933  161.7947 C.3     1  UNL1        0.0933
      5 C         141.3279  140.5269  166.8533 C.3     1  UNL1        0.0416
      6 C         140.3400  139.5394  166.3065 C.3     1  UNL1        0.0073
      7 C         140.4074  139.1311  164.8648 C.3     1  UNL1        0.0163
      8 C         141.4627  139.7102  163.9698 C.3     1  UNL1        0.0576
      9 C         142.4506  140.6976  164.5166 C.3     1  UNL1        0.0163
     10 C         142.3832  141.1060  165.9584 C.3     1  UNL1        0.0073
     11 N         142.9315  139.0430  168.9092 N.pl3   1  UNL1       -0.3561
     12 C         142.0622  140.1933  169.3231 C.ar    1  UNL1        0.0553
     13 C         141.9948  140.6017  170.7648 C.ar    1  UNL1        0.0169
     14 C         141.1255  141.7520  171.1786 C.ar    1  UNL1        0.0219
     15 C         140.3238  142.4939  170.1507 C.ar    1  UNL1        0.0985
     16 N         140.3912  142.0856  168.7090 N.ar    1  UNL1       -0.2469
     17 C         141.2605  140.9353  168.2951 C.ar    1  UNL1        0.0714
     18 H         143.4577  138.5561  169.5839 H       1  UNL1        0.1424
     19 H         142.9757  138.7750  167.9630 H       1  UNL1        0.1424
     20 N         141.6928  138.3159  159.0473 N.am    1  UNL1       -0.3018
     21 C         140.4462  138.2999  158.2133 C.2     1  UNL1        0.2426
     22 O         139.1321  138.6922  158.8210 O.2     1  UNL1       -0.2733
     23 H         142.5553  138.0584  158.6484 H       1  UNL1        0.1495
     24 C         140.5136  137.8915  156.7715 C.3     1  UNL1        0.1759
     25 N         140.9441  136.5021  156.4049 N.am    1  UNL1       -0.2931
     26 C         142.4026  136.1540  156.3683 C.2     1  UNL1        0.2462
     27 O         143.4308  137.1952  156.6983 O.2     1  UNL1       -0.2701
     28 H         140.2693  135.8188  156.1883 H       1  UNL1        0.1502
     29 C         142.8331  134.7646  156.0017 C.ar    1  UNL1        0.0533
     30 C         142.4722  134.1968  154.6611 C.ar    1  UNL1        0.0045
     31 C         142.9026  132.8074  154.2945 C.ar    1  UNL1        0.0001
     32 C         143.6940  131.9859  155.2685 C.ar    1  UNL1        0.0039
     33 C         144.0549  132.5537  156.6092 C.ar    1  UNL1        0.0716
     34 C         143.6245  133.9430  156.9758 C.ar    1  UNL1        0.0084
     35 C         144.8463  131.7321  157.5832 C.3     1  UNL1        0.4186
     36 F         145.6376  130.9106  158.5572 F       1  UNL1       -0.1659
     37 F         145.2692  132.9831  158.2947 F       1  UNL1       -0.1659
     38 F         144.4233  130.4812  156.8717 F       1  UNL1       -0.1659
@<TRIPOS>BOND
     1    11    12    1
     2    12    13   ar
     3    13    14   ar
     4    14    15   ar
     5    15    16   ar
     6    16    17   ar
     7     5    17    1
     8     5     6    1
     9     6     7    1
    10     7     8    1
    11     8     1    1
    12     1     2    1
    13     2     3    1
    14     3    20    1
    15    20    21   am
    16    21    22    2
    17    21    24    1
    18    24    25    1
    19    25    26   am
    20    26    27    2
    21    26    29    1
    22    29    30   ar
    23    30    31   ar
    24    31    32   ar
    25    32    33   ar
    26    33    35    1
    27    35    36    1
    28    35    37    1
    29    35    38    1
    30    33    34   ar
    31     3     4    1
    32     8     9    1
    33     9    10    1
    34    17    12   ar
    35    10     5    1
    36     4     1    1
    37    34    29   ar
    38    11    18    1
    39    11    19    1
    40    20    23    1
    41    25    28    1
@<TRIPOS>MOLECULE
*****
 38 41 0 0 0
SMALL
GASTEIGER

@<TRIPOS>ATOM
      1 N         141.4036  139.2979  162.0400 N.3     1  UNL1       -0.2711
      2 C         142.2911  138.2783  161.3899 C.3     1  UNL1        0.0933
      3 C         141.7226  138.6383  160.0492 C.3     1  UNL1        0.1035
      4 C         140.8351  139.6579  160.6994 C.3     1  UNL1        0.0933
      5 C         140.7269  140.6972  166.2630 C.3     1  UNL1        0.0416
      6 C         141.4711  139.4205  166.0061 C.3     1  UNL1        0.0073
      7 C         141.6967  138.9540  164.5985 C.3     1  UNL1        0.0163
      8 C         141.1780  139.7644  163.4476 C.3     1  UNL1        0.0576
      9 C         140.4337  141.0411  163.7045 C.3     1  UNL1        0.0163
     10 C         140.2082  141.5075  165.1123 C.3     1  UNL1        0.0073
     11 N         138.7244  139.2979  168.0042 N.pl3   1  UNL1       -0.3561
     12 C         139.5001  140.4640  168.5413 C.ar    1  UNL1        0.0553
     13 C         139.2746  140.9304  169.9490 C.ar    1  UNL1        0.0169
     14 C         140.0503  142.0965  170.4861 C.ar    1  UNL1        0.0219
     15 C         141.0515  142.7962  169.6155 C.ar    1  UNL1        0.0985
     16 N         141.2770  142.3298  168.2078 N.ar    1  UNL1       -0.2469
     17 C         140.5013  141.1636  167.6708 C.ar    1  UNL1        0.0714
     18 H         138.0672  138.8386  168.5757 H       1  UNL1        0.1424
     19 H         138.8724  138.9917  167.0803 H       1  UNL1        0.1424
     20 N         141.9482  138.1718  158.6416 N.am    1  UNL1       -0.3018
     21 C         143.0789  138.7391  157.8356 C.2     1  UNL1        0.2426
     22 O         143.9841  139.7728  158.4373 O.2     1  UNL1       -0.2733
     23 H         141.3541  137.4934  158.2467 H       1  UNL1        0.1495
     24 C         143.3044  138.2726  156.4279 C.3     1  UNL1        0.1759
     25 N         143.6906  136.8476  156.1628 N.am    1  UNL1       -0.2931
     26 C         142.6323  135.7889  156.0682 C.2     1  UNL1        0.2462
     27 O         141.1876  136.1552  156.2386 O.2     1  UNL1       -0.2701
     28 H         144.6387  136.6072  156.0509 H       1  UNL1        0.1502
     29 C         143.0184  134.3639  155.8031 C.ar    1  UNL1        0.0533
     30 C         142.6816  133.7280  154.4870 C.ar    1  UNL1        0.0045
     31 C         143.0678  132.3030  154.2220 C.ar    1  UNL1        0.0001
     32 C         143.7908  131.5139  155.2730 C.ar    1  UNL1        0.0039
     33 C         144.1276  132.1499  156.5891 C.ar    1  UNL1        0.0716
     34 C         143.7414  133.5749  156.8542 C.ar    1  UNL1        0.0084
     35 C         144.8505  131.3608  157.6402 C.3     1  UNL1        0.4186
     36 F         145.5735  130.5717  158.6912 F       1  UNL1       -0.1659
     37 F         144.0420  130.1481  157.2858 F       1  UNL1       -0.1659
     38 F         145.6590  132.5736  157.9945 F       1  UNL1       -0.1659
@<TRIPOS>BOND
     1    11    12    1
     2    12    13   ar
     3    13    14   ar
     4    14    15   ar
     5    15    16   ar
     6    16    17   ar
     7     5    17    1
     8     5     6    1
     9     6     7    1
    10     7     8    1
    11     8     1    1
    12     1     2    1
    13     2     3    1
    14     3    20    1
    15    20    21   am
    16    21    22    2
    17    21    24    1
    18    24    25    1
    19    25    26   am
    20    26    27    2
    21    26    29    1
    22    29    30   ar
    23    30    31   ar
    24    31    32   ar
    25    32    33   ar
    26    33    35    1
    27    35    36    1
    28    35    37    1
    29    35    38    1
    30    33    34   ar
    31     3     4    1
    32     8     9    1
    33     9    10    1
    34    17    12   ar
    35    10     5    1
    36     4     1    1
    37    34    29   ar
    38    11    18    1
    39    11    19    1
    40    20    23    1
    41    25    28    1
@<TRIPOS>MOLECULE
*****
 38 41 0 0 0
SMALL
GASTEIGER

@<TRIPOS>ATOM
      1 N         140.3211  142.8037  159.7833 N.3     1  UNL1       -0.2711
      2 C         140.3294  142.9254  161.2783 C.3     1  UNL1        0.0933
      3 C         140.3162  141.4304  161.4001 C.3     1  UNL1        0.1035
      4 C         140.3080  141.3087  159.9050 C.3     1  UNL1        0.0933
      5 C         140.3315  145.7169  156.3535 C.3     1  UNL1        0.0416
      6 C         139.3631  144.5715  156.3617 C.3     1  UNL1        0.0073
      7 C         139.3596  143.6004  157.5049 C.3     1  UNL1        0.0163
      8 C         140.3246  143.7748  158.6401 C.3     1  UNL1        0.0576
      9 C         141.2931  144.9202  158.6319 C.3     1  UNL1        0.0163
     10 C         141.2965  145.8913  157.4886 C.3     1  UNL1        0.0073
     11 N         138.7585  148.2643  156.5444 N.pl3   1  UNL1       -0.3561
     12 C         139.5485  147.9617  155.3057 C.ar    1  UNL1        0.0553
     13 C         139.5520  148.9327  154.1624 C.ar    1  UNL1        0.0169
     14 C         140.3419  148.6300  152.9237 C.ar    1  UNL1        0.0219
     15 C         141.1284  147.3563  152.8283 C.ar    1  UNL1        0.0985
     16 N         141.1249  146.3853  153.9716 N.ar    1  UNL1       -0.2469
     17 C         140.3350  146.6880  155.2102 C.ar    1  UNL1        0.0714
     18 H         138.2423  149.1003  156.6070 H       1  UNL1        0.1424
     19 H         138.7562  147.6270  157.2947 H       1  UNL1        0.1424
     20 N         140.3128  140.4593  162.5433 N.am    1  UNL1       -0.3018
     21 C         139.0286  139.8177  162.9784 C.2     1  UNL1        0.2426
     22 O         137.7480  140.1471  162.2704 O.2     1  UNL1       -0.2733
     23 H         141.1533  140.2431  163.0080 H       1  UNL1        0.1495
     24 C         139.0252  138.8466  164.1217 C.3     1  UNL1        0.1759
     25 N         139.0655  139.3506  165.5339 N.am    1  UNL1       -0.2931
     26 C         140.3725  139.7543  166.1492 C.2     1  UNL1        0.2462
     27 O         141.6394  139.6540  165.3523 O.2     1  UNL1       -0.2701
     28 H         138.2340  139.4164  166.0570 H       1  UNL1        0.1502
     29 C         140.4127  140.2583  167.5614 C.ar    1  UNL1        0.0533
     30 C         139.2725  139.9717  168.4929 C.ar    1  UNL1        0.0045
     31 C         139.3127  140.4757  169.9051 C.ar    1  UNL1        0.0001
     32 C         140.4932  141.2663  170.3859 C.ar    1  UNL1        0.0039
     33 C         141.6336  141.5530  169.4545 C.ar    1  UNL1        0.0716
     34 C         141.5933  141.0490  168.0422 C.ar    1  UNL1        0.0084
     35 C         142.8141  142.3436  169.9353 C.3     1  UNL1        0.4186
     36 F         143.9946  143.1342  170.4161 F       1  UNL1       -0.1659
     37 F         143.6441  141.0943  169.9517 F       1  UNL1       -0.1659
     38 F         141.9840  143.5929  169.9189 F       1  UNL1       -0.1659
@<TRIPOS>BOND
     1    11    12    1
     2    12    13   ar
     3    13    14   ar
     4    14    15   ar
     5    15    16   ar
     6    16    17   ar
     7     5    17    1
     8     5     6    1
     9     6     7    1
    10     7     8    1
    11     8     1    1
    12     1     2    1
    13     2     3    1
    14     3    20    1
    15    20    21   am
    16    21    22    2
    17    21    24    1
    18    24    25    1
    19    25    26   am
    20    26    27    2
    21    26    29    1
    22    29    30   ar
    23    30    31   ar
    24    31    32   ar
    25    32    33   ar
    26    33    35    1
    27    35    36    1
    28    35    37    1
    29    35    38    1
    30    33    34   ar
    31     3     4    1
    32     8     9    1
    33     9    10    1
    34    17    12   ar
    35    10     5    1
    36     4     1    1
    37    34    29   ar
    38    11    18    1
    39    11    19    1
    40    20    23    1
    41    25    28    1
@<TRIPOS>MOLECULE
*****
 38 41 0 0 0
SMALL
GASTEIGER

@<TRIPOS>ATOM
      1 N         141.3101  139.2366  162.5735 N.3     1  UNL1       -0.2711
      2 C         141.3739  139.9561  161.2588 C.3     1  UNL1        0.0933
      3 C         141.3585  138.6407  160.5381 C.3     1  UNL1        0.1035
      4 C         141.2947  137.9212  161.8527 C.3     1  UNL1        0.0933
      5 C         141.2075  140.5007  166.8910 C.3     1  UNL1        0.0416
      6 C         140.1535  139.5781  166.3544 C.3     1  UNL1        0.0073
      7 C         140.1877  139.1568  164.9152 C.3     1  UNL1        0.0163
      8 C         141.2759  139.6580  164.0126 C.3     1  UNL1        0.0576
      9 C         142.3299  140.5806  164.5492 C.3     1  UNL1        0.0163
     10 C         142.2957  141.0019  165.9885 C.3     1  UNL1        0.0073
     11 N         142.8940  139.0654  168.9148 N.pl3   1  UNL1       -0.3561
     12 C         142.0165  140.2044  169.3421 C.ar    1  UNL1        0.0553
     13 C         141.9822  140.6258  170.7813 C.ar    1  UNL1        0.0169
     14 C         141.1047  141.7648  171.2086 C.ar    1  UNL1        0.0219
     15 C         140.2615  142.4825  170.1968 C.ar    1  UNL1        0.0985
     16 N         140.2957  142.0611  168.7576 N.ar    1  UNL1       -0.2469
     17 C         141.1733  140.9221  168.3303 C.ar    1  UNL1        0.0714
     18 H         143.4475  138.5944  169.5789 H       1  UNL1        0.1424
     19 H         142.9165  138.7888  167.9702 H       1  UNL1        0.1424
     20 N         141.3927  138.2193  159.0990 N.am    1  UNL1       -0.3018
     21 C         140.1835  138.4114  158.2323 C.2     1  UNL1        0.2426
     22 O         138.9402  139.0249  158.8048 O.2     1  UNL1       -0.2733
     23 H         142.2087  137.8167  158.7232 H       1  UNL1        0.1495
     24 C         140.2178  137.9900  156.7931 C.3     1  UNL1        0.1759
     25 N         140.5857  136.5812  156.4326 N.am    1  UNL1       -0.2931
     26 C         142.0275  136.1694  156.3927 C.2     1  UNL1        0.2462
     27 O         143.1014  137.1664  156.7131 O.2     1  UNL1       -0.2701
     28 H         139.8808  135.9268  156.2223 H       1  UNL1        0.1502
     29 C         142.3954  134.7606  156.0322 C.ar    1  UNL1        0.0533
     30 C         143.7599  134.2335  156.3640 C.ar    1  UNL1        0.0045
     31 C         144.1278  132.8247  156.0036 C.ar    1  UNL1        0.0001
     32 C         143.1312  131.9430  155.3114 C.ar    1  UNL1        0.0039
     33 C         141.7665  132.4700  154.9796 C.ar    1  UNL1        0.0716
     34 C         141.3986  133.8788  155.3400 C.ar    1  UNL1        0.0084
     35 C         140.7699  131.5883  154.2874 C.3     1  UNL1        0.4186
     36 F         139.7732  130.7066  153.5953 F       1  UNL1       -0.1659
     37 F         140.9150  130.5684  155.3777 F       1  UNL1       -0.1659
     38 F         140.6248  132.6083  153.1971 F       1  UNL1       -0.1659
@<TRIPOS>BOND
     1    11    12    1
     2    12    13   ar
     3    13    14   ar
     4    14    15   ar
     5    15    16   ar
     6    16    17   ar
     7     5    17    1
     8     5     6    1
     9     6     7    1
    10     7     8    1
    11     8     1    1
    12     1     2    1
    13     2     3    1
    14     3    20    1
    15    20    21   am
    16    21    22    2
    17    21    24    1
    18    24    25    1
    19    25    26   am
    20    26    27    2
    21    26    29    1
    22    29    30   ar
    23    30    31   ar
    24    31    32   ar
    25    32    33   ar
    26    33    35    1
    27    35    36    1
    28    35    37    1
    29    35    38    1
    30    33    34   ar
    31     3     4    1
    32     8     9    1
    33     9    10    1
    34    17    12   ar
    35    10     5    1
    36     4     1    1
    37    34    29   ar
    38    11    18    1
    39    11    19    1
    40    20    23    1
    41    25    28    1
@<TRIPOS>MOLECULE
*****
 38 41 0 0 0
SMALL
GASTEIGER

@<TRIPOS>ATOM
      1 N         141.6280  135.1035  155.2474 N.3     1  UNL1       -0.2711
      2 C         141.3952  136.3099  156.1079 C.3     1  UNL1        0.0933
      3 C         140.7011  136.9906  154.9656 C.3     1  UNL1        0.1035
      4 C         140.9339  135.7842  154.1051 C.3     1  UNL1        0.0933
      5 C         143.5944  131.1003  155.8452 C.3     1  UNL1        0.0416
      6 C         144.3971  132.3592  155.9897 C.3     1  UNL1        0.0073
      7 C         143.7416  133.6936  155.7904 C.3     1  UNL1        0.0163
      8 C         142.2835  133.7691  155.4466 C.3     1  UNL1        0.0576
      9 C         141.4808  132.5102  155.3021 C.3     1  UNL1        0.0163
     10 C         142.1363  131.1757  155.5014 C.3     1  UNL1        0.0073
     11 N         143.4931  129.7652  158.5299 N.pl3   1  UNL1       -0.3561
     12 C         144.1993  129.0983  157.3868 C.ar    1  UNL1        0.0553
     13 C         144.8548  127.7639  157.5860 C.ar    1  UNL1        0.0169
     14 C         145.5610  127.0971  156.4429 C.ar    1  UNL1        0.0219
     15 C         145.6116  127.7646  155.1006 C.ar    1  UNL1        0.0985
     16 N         144.9561  129.0990  154.9014 N.ar    1  UNL1       -0.2469
     17 C         144.2500  129.7658  156.0445 C.ar    1  UNL1        0.0714
     18 H         143.4599  129.3270  159.4109 H       1  UNL1        0.1424
     19 H         143.0629  130.6410  158.3991 H       1  UNL1        0.1424
     20 N         140.0456  138.3250  154.7663 N.am    1  UNL1       -0.3018
     21 C         138.5656  138.4703  154.9621 C.2     1  UNL1        0.2426
     22 O         137.7410  137.2813  155.3571 O.2     1  UNL1       -0.2733
     23 H         140.5868  139.1055  154.5071 H       1  UNL1        0.1495
     24 C         137.9101  139.8048  154.7628 C.3     1  UNL1        0.1759
     25 N         136.4146  139.9171  154.7882 N.am    1  UNL1       -0.2931
     26 C         135.7141  140.3208  156.0516 C.2     1  UNL1        0.2462
     27 O         136.5092  140.6122  157.2898 O.2     1  UNL1       -0.2701
     28 H         135.8927  139.7258  153.9756 H       1  UNL1        0.1502
     29 C         134.2185  140.4330  156.0770 C.ar    1  UNL1        0.0533
     30 C         133.5225  141.3898  155.1550 C.ar    1  UNL1        0.0045
     31 C         132.0269  141.5020  155.1804 C.ar    1  UNL1        0.0001
     32 C         131.2274  140.6575  156.1278 C.ar    1  UNL1        0.0039
     33 C         131.9234  139.7007  157.0498 C.ar    1  UNL1        0.0716
     34 C         133.4190  139.5885  157.0245 C.ar    1  UNL1        0.0084
     35 C         131.1239  138.8562  157.9972 C.3     1  UNL1        0.4186
     36 F         130.3244  138.0117  158.9446 F       1  UNL1       -0.1659
     37 F         132.3673  138.1109  158.3822 F       1  UNL1       -0.1659
     38 F         129.8804  139.6016  157.6122 F       1  UNL1       -0.1659
@<TRIPOS>BOND
     1    11    12    1
     2    12    13   ar
     3    13    14   ar
     4    14    15   ar
     5    15    16   ar
     6    16    17   ar
     7     5    17    1
     8     5     6    1
     9     6     7    1
    10     7     8    1
    11     8     1    1
    12     1     2    1
    13     2     3    1
    14     3    20    1
    15    20    21   am
    16    21    22    2
    17    21    24    1
    18    24    25    1
    19    25    26   am
    20    26    27    2
    21    26    29    1
    22    29    30   ar
    23    30    31   ar
    24    31    32   ar
    25    32    33   ar
    26    33    35    1
    27    35    36    1
    28    35    37    1
    29    35    38    1
    30    33    34   ar
    31     3     4    1
    32     8     9    1
    33     9    10    1
    34    17    12   ar
    35    10     5    1
    36     4     1    1
    37    34    29   ar
    38    11    18    1
    39    11    19    1
    40    20    23    1
    41    25    28    1
@<TRIPOS>MOLECULE
*****
 38 41 0 0 0
SMALL
GASTEIGER

@<TRIPOS>ATOM
      1 N         134.7327  140.9018  155.7004 N.3     1  UNL1       -0.2711
      2 C         136.0593  140.9910  156.3948 C.3     1  UNL1        0.0933
      3 C         136.6233  141.7361  155.2214 C.3     1  UNL1        0.1035
      4 C         135.2967  141.6468  154.5270 C.3     1  UNL1        0.0933
      5 C         130.7220  139.1320  156.7165 C.3     1  UNL1        0.0416
      6 C         130.8096  140.5247  156.1662 C.3     1  UNL1        0.0073
      7 C         132.1464  141.1146  155.8275 C.3     1  UNL1        0.0163
      8 C         133.3958  140.3119  156.0391 C.3     1  UNL1        0.0576
      9 C         133.3082  138.9192  156.5893 C.3     1  UNL1        0.0163
     10 C         131.9713  138.3293  156.9280 C.3     1  UNL1        0.0073
     11 N         129.1996  137.5807  154.6487 N.pl3   1  UNL1       -0.3561
     12 C         128.6239  137.7665  156.0213 C.ar    1  UNL1        0.0553
     13 C         127.2870  137.1766  156.3600 C.ar    1  UNL1        0.0169
     14 C         126.7113  137.3624  157.7326 C.ar    1  UNL1        0.0219
     15 C         127.4725  138.1380  158.7665 C.ar    1  UNL1        0.0985
     16 N         128.8093  138.7279  158.4278 N.ar    1  UNL1       -0.2469
     17 C         129.3850  138.5421  157.0552 C.ar    1  UNL1        0.0714
     18 H         128.7000  137.0716  153.9701 H       1  UNL1        0.1424
     19 H         130.0770  137.9679  154.4264 H       1  UNL1        0.1424
     20 N         137.9602  142.3260  154.8827 N.am    1  UNL1       -0.3018
     21 C         138.1650  143.8102  154.9546 C.2     1  UNL1        0.2426
     22 O         137.0329  144.7045  155.3653 O.2     1  UNL1       -0.2733
     23 H         138.7032  141.7390  154.6132 H       1  UNL1        0.1495
     24 C         139.5019  144.4001  154.6159 C.3     1  UNL1        0.1759
     25 N         139.5844  145.7607  153.9899 N.am    1  UNL1       -0.2931
     26 C         139.6590  146.9821  154.8574 C.2     1  UNL1        0.2462
     27 O         139.6511  146.8430  156.3509 O.2     1  UNL1       -0.2701
     28 H         139.5896  145.8521  153.0097 H       1  UNL1        0.1502
     29 C         139.7415  148.3428  154.2314 C.ar    1  UNL1        0.0533
     30 C         140.3716  148.5098  152.8804 C.ar    1  UNL1        0.0045
     31 C         140.4541  149.8705  152.2544 C.ar    1  UNL1        0.0001
     32 C         139.9065  151.0640  152.9793 C.ar    1  UNL1        0.0039
     33 C         139.2765  150.8970  154.3304 C.ar    1  UNL1        0.0716
     34 C         139.1939  149.5364  154.9564 C.ar    1  UNL1        0.0084
     35 C         138.7289  152.0906  155.0553 C.3     1  UNL1        0.4186
     36 F         138.1814  153.2841  155.7802 F       1  UNL1       -0.1659
     37 F         138.1454  152.6024  153.7718 F       1  UNL1       -0.1659
     38 F         139.3125  151.5786  156.3389 F       1  UNL1       -0.1659
@<TRIPOS>BOND
     1    11    12    1
     2    12    13   ar
     3    13    14   ar
     4    14    15   ar
     5    15    16   ar
     6    16    17   ar
     7     5    17    1
     8     5     6    1
     9     6     7    1
    10     7     8    1
    11     8     1    1
    12     1     2    1
    13     2     3    1
    14     3    20    1
    15    20    21   am
    16    21    22    2
    17    21    24    1
    18    24    25    1
    19    25    26   am
    20    26    27    2
    21    26    29    1
    22    29    30   ar
    23    30    31   ar
    24    31    32   ar
    25    32    33   ar
    26    33    35    1
    27    35    36    1
    28    35    37    1
    29    35    38    1
    30    33    34   ar
    31     3     4    1
    32     8     9    1
    33     9    10    1
    34    17    12   ar
    35    10     5    1
    36     4     1    1
    37    34    29   ar
    38    11    18    1
    39    11    19    1
    40    20    23    1
    41    25    28    1
@<TRIPOS>MOLECULE
*****
 38 41 0 0 0
SMALL
GASTEIGER

@<TRIPOS>ATOM
      1 N         140.3552  142.5269  162.5240 N.3     1  UNL1       -0.2711
      2 C         139.1894  142.8195  161.6266 C.3     1  UNL1        0.0933
      3 C         140.1062  142.8314  160.4395 C.3     1  UNL1        0.1035
      4 C         141.2720  142.5387  161.3369 C.3     1  UNL1        0.0933
      5 C         140.8832  141.8809  166.9460 C.3     1  UNL1        0.0416
      6 C         140.0278  143.0087  166.4496 C.3     1  UNL1        0.0073
      7 C         139.8518  143.2240  164.9757 C.3     1  UNL1        0.0163
      8 C         140.5312  142.3115  163.9980 C.3     1  UNL1        0.0576
      9 C         141.3866  141.1837  164.4943 C.3     1  UNL1        0.0163
     10 C         141.5626  140.9684  165.9683 C.3     1  UNL1        0.0073
     11 N         139.2471  139.8046  168.3646 N.pl3   1  UNL1       -0.3561
     12 C         140.2412  140.6275  169.1293 C.ar    1  UNL1        0.0553
     13 C         140.4173  140.4122  170.6033 C.ar    1  UNL1        0.0169
     14 C         141.4113  141.2350  171.3679 C.ar    1  UNL1        0.0219
     15 C         142.2294  142.2731  170.6587 C.ar    1  UNL1        0.0985
     16 N         142.0533  142.4884  169.1847 N.ar    1  UNL1       -0.2469
     17 C         141.0592  141.6656  168.4200 C.ar    1  UNL1        0.0714
     18 H         138.7102  139.1233  168.8301 H       1  UNL1        0.1424
     19 H         139.1316  139.9459  167.3972 H       1  UNL1        0.1424
     20 N         139.9302  143.0467  158.9655 N.am    1  UNL1       -0.3018
     21 C         139.8690  144.4400  158.4131 C.2     1  UNL1        0.2426
     22 O         139.9838  145.6179  159.3347 O.2     1  UNL1       -0.2733
     23 H         139.8548  142.2736  158.3606 H       1  UNL1        0.1495
     24 C         139.6929  144.6553  156.9391 C.3     1  UNL1        0.1759
     25 N         140.0545  145.9754  156.3255 N.am    1  UNL1       -0.2931
     26 C         139.1175  146.6340  155.3568 C.2     1  UNL1        0.2462
     27 O         137.8190  145.9724  155.0017 O.2     1  UNL1       -0.2701
     28 H         140.9067  146.4097  156.5586 H       1  UNL1        0.1502
     29 C         139.4791  147.9542  154.7433 C.ar    1  UNL1        0.0533
     30 C         140.3707  148.0020  153.5381 C.ar    1  UNL1        0.0045
     31 C         140.7323  149.3221  152.9245 C.ar    1  UNL1        0.0001
     32 C         140.2022  150.5945  153.5162 C.ar    1  UNL1        0.0039
     33 C         139.3105  150.5467  154.7214 C.ar    1  UNL1        0.0716
     34 C         138.9489  149.2265  155.3350 C.ar    1  UNL1        0.0084
     35 C         138.7804  151.8190  155.3131 C.3     1  UNL1        0.4186
     36 F         138.2503  153.0914  155.9048 F       1  UNL1       -0.1659
     37 F         138.2267  152.2105  153.9752 F       1  UNL1       -0.1659
     38 F         139.3341  151.4275  156.6511 F       1  UNL1       -0.1659
@<TRIPOS>BOND
     1    11    12    1
     2    12    13   ar
     3    13    14   ar
     4    14    15   ar
     5    15    16   ar
     6    16    17   ar
     7     5    17    1
     8     5     6    1
     9     6     7    1
    10     7     8    1
    11     8     1    1
    12     1     2    1
    13     2     3    1
    14     3    20    1
    15    20    21   am
    16    21    22    2
    17    21    24    1
    18    24    25    1
    19    25    26   am
    20    26    27    2
    21    26    29    1
    22    29    30   ar
    23    30    31   ar
    24    31    32   ar
    25    32    33   ar
    26    33    35    1
    27    35    36    1
    28    35    37    1
    29    35    38    1
    30    33    34   ar
    31     3     4    1
    32     8     9    1
    33     9    10    1
    34    17    12   ar
    35    10     5    1
    36     4     1    1
    37    34    29   ar
    38    11    18    1
    39    11    19    1
    40    20    23    1
    41    25    28    1
