@<TRIPOS>MOLECULE
*****
 27 31 0 0 0
SMALL
GASTEIGER

@<TRIPOS>ATOM
      1 O         142.8889  140.4538  166.9322 O.2     1  UNL1       -0.2262
      2 C         141.4881  139.9464  167.1064 C.2     1  UNL1        0.4052
      3 N         140.7071  139.4765  165.9151 N.am    1  UNL1       -0.2398
      4 C         139.3063  138.9691  166.0893 C.3     1  UNL1        0.1020
      5 C         138.5252  138.4992  164.8980 C.3     1  UNL1        0.0477
      6 C         139.1450  138.5367  163.5325 C.ar    1  UNL1       -0.0226
      7 C         138.3639  138.0668  162.3413 C.ar    1  UNL1       -0.0045
      8 C         138.9837  138.1042  160.9758 C.ar    1  UNL1       -0.0003
      9 C         140.3845  138.6116  160.8016 C.ar    1  UNL1       -0.0003
     10 C         141.1655  139.0815  161.9929 C.ar    1  UNL1       -0.0027
     11 C         140.5458  139.0440  163.3583 C.ar    1  UNL1       -0.0039
     12 C         141.3268  139.5140  164.5496 C.3     1  UNL1        0.1233
     13 C         142.7276  140.0213  164.3754 C.ar    1  UNL1       -0.0000
     14 C         142.9703  141.4778  164.1111 C.ar    1  UNL1       -0.0023
     15 C         144.3711  141.9852  163.9369 C.ar    1  UNL1       -0.0003
     16 C         145.5292  141.0361  164.0271 C.ar    1  UNL1       -0.0000
     17 C         145.2865  139.5797  164.2914 C.ar    1  UNL1       -0.0003
     18 C         143.8857  139.0723  164.4656 C.ar    1  UNL1       -0.0023
     19 O         140.8684  139.9090  168.4718 O.3     1  UNL1       -0.4368
     20 C         140.4168  142.4925  169.2371 C.3     1  UNL1        0.1863
     21 C         140.0889  142.4753  170.5594 C.3     1  UNL1        0.1163
     22 N         139.8927  142.4565  171.3542 N.3     1  UNL1       -0.2697
     23 C         139.9463  143.7588  170.6117 C.3     1  UNL1        0.0723
     24 C         140.3073  143.7777  169.1559 C.3     1  UNL1        0.0210
     25 C         140.6147  142.4945  168.4426 C.3     1  UNL1        0.0444
     26 C         140.4176  141.7911  169.5179 C.3     1  UNL1        0.0210
     27 C         140.2250  141.7810  170.2944 C.3     1  UNL1        0.0723
@<TRIPOS>BOND
     1     1     2    2
     2     2    19    1
     3    20    19    1
     4    20    21    1
     5    21    22    1
     6    22    23    1
     7    23    24    1
     8    24    25    1
     9    25    26    1
    10    26    27    1
    11     2     3   am
    12     3     4    1
    13     4     5    1
    14     5     6    1
    15     6     7   ar
    16     7     8   ar
    17     8     9   ar
    18     9    10   ar
    19    10    11   ar
    20    11    12    1
    21    12    13    1
    22    13    14   ar
    23    14    15   ar
    24    15    16   ar
    25    16    17   ar
    26    17    18   ar
    27    25    20    1
    28    12     3    1
    29    18    13   ar
    30    27    22    1
    31    11     6   ar
@<TRIPOS>MOLECULE
*****
 27 31 0 0 0
SMALL
GASTEIGER

@<TRIPOS>ATOM
      1 O         138.6445  141.2697  165.4712 O.2     1  UNL1       -0.2262
      2 C         139.7870  140.3469  165.7763 C.2     1  UNL1        0.4052
      3 N         141.1086  140.5382  165.0931 N.am    1  UNL1       -0.2398
      4 C         142.2511  139.6154  165.3983 C.3     1  UNL1        0.1020
      5 C         143.5727  139.8066  164.7151 C.3     1  UNL1        0.0477
      6 C         143.7519  140.9207  163.7268 C.ar    1  UNL1       -0.0226
      7 C         145.0735  141.1119  163.0436 C.ar    1  UNL1       -0.0045
      8 C         145.2526  142.2260  162.0553 C.ar    1  UNL1       -0.0003
      9 C         144.1101  143.1488  161.7502 C.ar    1  UNL1       -0.0003
     10 C         142.7885  142.9576  162.4333 C.ar    1  UNL1       -0.0027
     11 C         142.6094  141.8435  163.4216 C.ar    1  UNL1       -0.0039
     12 C         141.2878  141.6522  164.1048 C.3     1  UNL1        0.1233
     13 C         140.1453  142.5751  163.7997 C.ar    1  UNL1       -0.0000
     14 C         139.1959  142.2501  162.6847 C.ar    1  UNL1       -0.0023
     15 C         138.0534  143.1729  162.3795 C.ar    1  UNL1       -0.0003
     16 C         137.8603  144.4207  163.1894 C.ar    1  UNL1       -0.0000
     17 C         138.8096  144.7456  164.3044 C.ar    1  UNL1       -0.0003
     18 C         139.9521  143.8228  164.6095 C.ar    1  UNL1       -0.0023
     19 O         139.6079  139.2329  166.7646 O.3     1  UNL1       -0.4368
     20 C         140.5860  140.1012  169.1633 C.3     1  UNL1        0.1863
     21 C         139.5326  140.5731  169.8870 C.3     1  UNL1        0.1163
     22 N         138.8943  140.8549  170.3156 N.3     1  UNL1       -0.2697
     23 C         140.2771  140.8865  170.8959 C.3     1  UNL1        0.0723
     24 C         141.4369  140.3668  170.0991 C.3     1  UNL1        0.0210
     25 C         141.2138  139.8156  168.7220 C.3     1  UNL1        0.0444
     26 C         139.9351  140.0413  168.7843 C.3     1  UNL1        0.0210
     27 C         139.3165  140.3184  169.2094 C.3     1  UNL1        0.0723
@<TRIPOS>BOND
     1     1     2    2
     2     2    19    1
     3    20    19    1
     4    20    21    1
     5    21    22    1
     6    22    23    1
     7    23    24    1
     8    24    25    1
     9    25    26    1
    10    26    27    1
    11     2     3   am
    12     3     4    1
    13     4     5    1
    14     5     6    1
    15     6     7   ar
    16     7     8   ar
    17     8     9   ar
    18     9    10   ar
    19    10    11   ar
    20    11    12    1
    21    12    13    1
    22    13    14   ar
    23    14    15   ar
    24    15    16   ar
    25    16    17   ar
    26    17    18   ar
    27    25    20    1
    28    12     3    1
    29    18    13   ar
    30    27    22    1
    31    11     6   ar
@<TRIPOS>MOLECULE
*****
 27 31 0 0 0
SMALL
GASTEIGER

@<TRIPOS>ATOM
      1 O         142.5140  139.9874  165.5406 O.2     1  UNL1       -0.2262
      2 C         141.0498  140.2632  165.7144 C.2     1  UNL1        0.4052
      3 N         140.4163  141.4246  165.0072 N.am    1  UNL1       -0.2398
      4 C         138.9522  141.7004  165.1810 C.3     1  UNL1        0.1020
      5 C         138.3186  142.8617  164.4739 C.3     1  UNL1        0.0477
      6 C         139.1493  143.7472  163.5929 C.ar    1  UNL1       -0.0226
      7 C         138.5158  144.9085  162.8858 C.ar    1  UNL1       -0.0045
      8 C         139.3464  145.7939  162.0049 C.ar    1  UNL1       -0.0003
      9 C         140.8105  145.5181  161.8311 C.ar    1  UNL1       -0.0003
     10 C         141.4440  144.3568  162.5383 C.ar    1  UNL1       -0.0027
     11 C         140.6134  143.4714  163.4191 C.ar    1  UNL1       -0.0039
     12 C         141.2469  142.3100  164.1263 C.3     1  UNL1        0.1233
     13 C         142.7111  142.0342  163.9525 C.ar    1  UNL1       -0.0000
     14 C         143.7118  142.7045  164.8466 C.ar    1  UNL1       -0.0023
     15 C         145.1760  142.4286  164.6728 C.ar    1  UNL1       -0.0003
     16 C         145.6394  141.4825  163.6050 C.ar    1  UNL1       -0.0000
     17 C         144.6386  140.8123  162.7110 C.ar    1  UNL1       -0.0003
     18 C         143.1745  141.0881  162.8848 C.ar    1  UNL1       -0.0023
     19 O         140.2192  139.3778  166.5953 O.3     1  UNL1       -0.4368
     20 C         140.7910  140.0314  169.1856 C.3     1  UNL1        0.1863
     21 C         139.6358  140.4675  169.7613 C.3     1  UNL1        0.1163
     22 N         138.9373  140.7283  170.1000 N.3     1  UNL1       -0.2697
     23 C         140.2043  140.6834  170.9017 C.3     1  UNL1        0.0723
     24 C         141.4763  140.2033  170.2679 C.3     1  UNL1        0.0210
     25 C         141.4813  139.7681  168.8324 C.3     1  UNL1        0.0444
     26 C         140.2120  140.0161  168.7006 C.3     1  UNL1        0.0210
     27 C         139.5335  140.2721  169.0387 C.3     1  UNL1        0.0723
@<TRIPOS>BOND
     1     1     2    2
     2     2    19    1
     3    20    19    1
     4    20    21    1
     5    21    22    1
     6    22    23    1
     7    23    24    1
     8    24    25    1
     9    25    26    1
    10    26    27    1
    11     2     3   am
    12     3     4    1
    13     4     5    1
    14     5     6    1
    15     6     7   ar
    16     7     8   ar
    17     8     9   ar
    18     9    10   ar
    19    10    11   ar
    20    11    12    1
    21    12    13    1
    22    13    14   ar
    23    14    15   ar
    24    15    16   ar
    25    16    17   ar
    26    17    18   ar
    27    25    20    1
    28    12     3    1
    29    18    13   ar
    30    27    22    1
    31    11     6   ar
@<TRIPOS>MOLECULE
*****
 27 31 0 0 0
SMALL
GASTEIGER

@<TRIPOS>ATOM
      1 O         142.8771  142.5319  166.0000 O.2     1  UNL1       -0.2262
      2 C         141.4438  142.1944  166.2858 C.2     1  UNL1        0.4052
      3 N         140.6811  141.3061  165.3481 N.am    1  UNL1       -0.2398
      4 C         139.2478  140.9686  165.6339 C.3     1  UNL1        0.1020
      5 C         138.4851  140.0804  164.6962 C.3     1  UNL1        0.0477
      6 C         139.1557  139.5296  163.4727 C.ar    1  UNL1       -0.0226
      7 C         138.3930  138.6413  162.5350 C.ar    1  UNL1       -0.0045
      8 C         139.0636  138.0906  161.3116 C.ar    1  UNL1       -0.0003
      9 C         140.4969  138.4280  161.0258 C.ar    1  UNL1       -0.0003
     10 C         141.2596  139.3163  161.9634 C.ar    1  UNL1       -0.0027
     11 C         140.5890  139.8671  163.1869 C.ar    1  UNL1       -0.0039
     12 C         141.3517  140.7554  164.1246 C.3     1  UNL1        0.1233
     13 C         142.7850  141.0928  163.8388 C.ar    1  UNL1       -0.0000
     14 C         143.1219  142.3100  163.0294 C.ar    1  UNL1       -0.0023
     15 C         144.5553  142.6475  162.7436 C.ar    1  UNL1       -0.0003
     16 C         145.6517  141.7678  163.2672 C.ar    1  UNL1       -0.0000
     17 C         145.3148  140.5507  164.0766 C.ar    1  UNL1       -0.0003
     18 C         143.8814  140.2132  164.3624 C.ar    1  UNL1       -0.0023
     19 O         140.7732  142.7452  167.5092 O.3     1  UNL1       -0.4368
     20 C         140.7661  140.7710  169.3978 C.3     1  UNL1        0.1863
     21 C         139.5459  140.7899  170.0037 C.3     1  UNL1        0.1163
     22 N         138.8102  140.8077  170.3628 N.3     1  UNL1       -0.2697
     23 C         139.8438  139.8077  170.7891 C.3     1  UNL1        0.0723
     24 C         141.1872  139.7869  170.1222 C.3     1  UNL1        0.0210
     25 C         141.4970  140.7661  169.0288 C.3     1  UNL1        0.0444
     26 C         140.3189  141.3091  169.1127 C.3     1  UNL1        0.0210
     27 C         139.6023  141.3202  169.4685 C.3     1  UNL1        0.0723
@<TRIPOS>BOND
     1     1     2    2
     2     2    19    1
     3    20    19    1
     4    20    21    1
     5    21    22    1
     6    22    23    1
     7    23    24    1
     8    24    25    1
     9    25    26    1
    10    26    27    1
    11     2     3   am
    12     3     4    1
    13     4     5    1
    14     5     6    1
    15     6     7   ar
    16     7     8   ar
    17     8     9   ar
    18     9    10   ar
    19    10    11   ar
    20    11    12    1
    21    12    13    1
    22    13    14   ar
    23    14    15   ar
    24    15    16   ar
    25    16    17   ar
    26    17    18   ar
    27    25    20    1
    28    12     3    1
    29    18    13   ar
    30    27    22    1
    31    11     6   ar
@<TRIPOS>MOLECULE
*****
 27 31 0 0 0
SMALL
GASTEIGER

@<TRIPOS>ATOM
      1 O         141.3565  143.6187  165.3840 O.2     1  UNL1       -0.2262
      2 C         141.4569  142.2356  165.9558 C.2     1  UNL1        0.4052
      3 N         140.7900  141.0862  165.2599 N.am    1  UNL1       -0.2398
      4 C         140.8904  139.7031  165.8317 C.3     1  UNL1        0.1020
      5 C         140.2236  138.5537  165.1359 C.3     1  UNL1        0.0477
      6 C         139.4564  138.7873  163.8683 C.ar    1  UNL1       -0.0226
      7 C         138.7896  137.6379  163.1725 C.ar    1  UNL1       -0.0045
      8 C         138.0224  137.8716  161.9049 C.ar    1  UNL1       -0.0003
      9 C         137.9220  139.2547  161.3332 C.ar    1  UNL1       -0.0003
     10 C         138.5888  140.4041  162.0290 C.ar    1  UNL1       -0.0027
     11 C         139.3560  140.1704  163.2965 C.ar    1  UNL1       -0.0039
     12 C         140.0228  141.3199  163.9924 C.3     1  UNL1        0.1233
     13 C         139.9224  142.7030  163.4206 C.ar    1  UNL1       -0.0000
     14 C         138.7764  143.5916  163.8039 C.ar    1  UNL1       -0.0023
     15 C         138.6760  144.9748  163.2321 C.ar    1  UNL1       -0.0003
     16 C         139.7217  145.4692  162.2770 C.ar    1  UNL1       -0.0000
     17 C         140.8677  144.5806  161.8938 C.ar    1  UNL1       -0.0003
     18 C         140.9680  143.1975  162.4655 C.ar    1  UNL1       -0.0023
     19 O         142.2241  142.0019  167.2233 O.3     1  UNL1       -0.4368
     20 C         140.4397  142.0978  169.2899 C.3     1  UNL1        0.1863
     21 C         140.4397  143.3726  169.7706 C.3     1  UNL1        0.1163
     22 N         140.4455  144.1409  170.0537 N.3     1  UNL1       -0.2697
     23 C         139.5561  143.1051  170.6751 C.3     1  UNL1        0.0723
     24 C         139.5561  141.7016  170.1459 C.3     1  UNL1        0.0210
     25 C         140.4454  141.3338  168.9953 C.3     1  UNL1        0.0444
     26 C         140.9198  142.5412  168.9108 C.3     1  UNL1        0.0210
     27 C         140.9198  143.2898  169.1931 C.3     1  UNL1        0.0723
@<TRIPOS>BOND
     1     1     2    2
     2     2    19    1
     3    20    19    1
     4    20    21    1
     5    21    22    1
     6    22    23    1
     7    23    24    1
     8    24    25    1
     9    25    26    1
    10    26    27    1
    11     2     3   am
    12     3     4    1
    13     4     5    1
    14     5     6    1
    15     6     7   ar
    16     7     8   ar
    17     8     9   ar
    18     9    10   ar
    19    10    11   ar
    20    11    12    1
    21    12    13    1
    22    13    14   ar
    23    14    15   ar
    24    15    16   ar
    25    16    17   ar
    26    17    18   ar
    27    25    20    1
    28    12     3    1
    29    18    13   ar
    30    27    22    1
    31    11     6   ar
@<TRIPOS>MOLECULE
*****
 27 31 0 0 0
SMALL
GASTEIGER

@<TRIPOS>ATOM
      1 O         140.3876  143.1248  165.7022 O.2     1  UNL1       -0.2262
      2 C         141.5858  142.2806  166.0210 C.2     1  UNL1        0.4052
      3 N         142.0426  141.2305  165.0520 N.am    1  UNL1       -0.2398
      4 C         143.2408  140.3862  165.3708 C.3     1  UNL1        0.1020
      5 C         143.6976  139.3362  164.4019 C.3     1  UNL1        0.0477
      6 C         142.9563  139.1304  163.1142 C.ar    1  UNL1       -0.0226
      7 C         143.4131  138.0804  162.1454 C.ar    1  UNL1       -0.0045
      8 C         142.6717  137.8746  160.8578 C.ar    1  UNL1       -0.0003
      9 C         141.4735  138.7189  160.5390 C.ar    1  UNL1       -0.0003
     10 C         141.0167  139.7689  161.5079 C.ar    1  UNL1       -0.0027
     11 C         141.7581  139.9747  162.7955 C.ar    1  UNL1       -0.0039
     12 C         141.3013  141.0247  163.7644 C.3     1  UNL1        0.1233
     13 C         140.1031  141.8690  163.4457 C.ar    1  UNL1       -0.0000
     14 C         140.2718  143.1590  162.6990 C.ar    1  UNL1       -0.0023
     15 C         139.0736  144.0032  162.3802 C.ar    1  UNL1       -0.0003
     16 C         137.7067  143.5575  162.8082 C.ar    1  UNL1       -0.0000
     17 C         137.5381  142.2675  163.5548 C.ar    1  UNL1       -0.0003
     18 C         138.7363  141.4233  163.8736 C.ar    1  UNL1       -0.0023
     19 O         142.3272  142.4863  167.3086 O.3     1  UNL1       -0.4368
     20 C         140.5229  142.2236  169.3432 C.3     1  UNL1        0.1863
     21 C         140.3643  143.4525  169.9096 C.3     1  UNL1        0.1163
     22 N         140.2746  144.1943  170.2445 N.3     1  UNL1       -0.2697
     23 C         139.5101  143.0188  170.7771 C.3     1  UNL1        0.0723
     24 C         139.6846  141.6658  170.1535 C.3     1  UNL1        0.0210
     25 C         140.6237  141.4883  168.9973 C.3     1  UNL1        0.0444
     26 C         140.9500  142.7466  169.0043 C.3     1  UNL1        0.0210
     27 C         140.8568  143.4683  169.3369 C.3     1  UNL1        0.0723
@<TRIPOS>BOND
     1     1     2    2
     2     2    19    1
     3    20    19    1
     4    20    21    1
     5    21    22    1
     6    22    23    1
     7    23    24    1
     8    24    25    1
     9    25    26    1
    10    26    27    1
    11     2     3   am
    12     3     4    1
    13     4     5    1
    14     5     6    1
    15     6     7   ar
    16     7     8   ar
    17     8     9   ar
    18     9    10   ar
    19    10    11   ar
    20    11    12    1
    21    12    13    1
    22    13    14   ar
    23    14    15   ar
    24    15    16   ar
    25    16    17   ar
    26    17    18   ar
    27    25    20    1
    28    12     3    1
    29    18    13   ar
    30    27    22    1
    31    11     6   ar
@<TRIPOS>MOLECULE
*****
 27 31 0 0 0
SMALL
GASTEIGER

@<TRIPOS>ATOM
      1 O         141.2480  139.0931  164.2118 O.2     1  UNL1       -0.2262
      2 C         140.1395  139.1132  165.2222 C.2     1  UNL1        0.4052
      3 N         140.3493  139.7733  166.5527 N.am    1  UNL1       -0.2398
      4 C         139.2408  139.7934  167.5631 C.3     1  UNL1        0.1020
      5 C         139.4506  140.4535  168.8936 C.3     1  UNL1        0.0477
      6 C         140.7689  141.0936  169.2138 C.ar    1  UNL1       -0.0226
      7 C         140.9786  141.7537  170.5442 C.ar    1  UNL1       -0.0045
      8 C         142.2969  142.3938  170.8643 C.ar    1  UNL1       -0.0003
      9 C         143.4054  142.3737  169.8539 C.ar    1  UNL1       -0.0003
     10 C         143.1956  141.7136  168.5235 C.ar    1  UNL1       -0.0027
     11 C         141.8774  141.0736  168.2034 C.ar    1  UNL1       -0.0039
     12 C         141.6676  140.4134  166.8728 C.3     1  UNL1        0.1233
     13 C         142.7760  140.3934  165.8625 C.ar    1  UNL1       -0.0000
     14 C         143.6807  139.2008  165.7652 C.ar    1  UNL1       -0.0023
     15 C         144.7892  139.1807  164.7548 C.ar    1  UNL1       -0.0003
     16 C         144.9930  140.3533  163.8417 C.ar    1  UNL1       -0.0000
     17 C         144.0884  141.5458  163.9390 C.ar    1  UNL1       -0.0003
     18 C         142.9799  141.5658  164.9494 C.ar    1  UNL1       -0.0023
     19 O         138.8213  138.4731  164.9021 O.3     1  UNL1       -0.4368
     20 C         138.2218  139.0863  162.3081 C.3     1  UNL1        0.1863
     21 C         137.7038  140.3463  162.2956 C.3     1  UNL1        0.1163
     22 N         137.3933  141.1041  162.2965 N.3     1  UNL1       -0.2697
     23 C         137.5349  140.3386  161.0143 C.3     1  UNL1        0.0723
     24 C         138.1053  138.9514  161.0280 C.3     1  UNL1        0.0210
     25 C         138.5341  138.3295  162.3240 C.3     1  UNL1        0.0444
     26 C         138.1924  139.3851  163.0014 C.3     1  UNL1        0.0210
     27 C         137.8882  140.1251  162.9941 C.3     1  UNL1        0.0723
@<TRIPOS>BOND
     1     1     2    2
     2     2    19    1
     3    20    19    1
     4    20    21    1
     5    21    22    1
     6    22    23    1
     7    23    24    1
     8    24    25    1
     9    25    26    1
    10    26    27    1
    11     2     3   am
    12     3     4    1
    13     4     5    1
    14     5     6    1
    15     6     7   ar
    16     7     8   ar
    17     8     9   ar
    18     9    10   ar
    19    10    11   ar
    20    11    12    1
    21    12    13    1
    22    13    14   ar
    23    14    15   ar
    24    15    16   ar
    25    16    17   ar
    26    17    18   ar
    27    25    20    1
    28    12     3    1
    29    18    13   ar
    30    27    22    1
    31    11     6   ar
@<TRIPOS>MOLECULE
*****
 27 31 0 0 0
SMALL
GASTEIGER

@<TRIPOS>ATOM
      1 O         142.4499  141.6302  162.5550 O.2     1  UNL1       -0.2262
      2 C         142.5373  140.2615  163.1625 C.2     1  UNL1        0.4052
      3 N         142.6129  140.1057  164.6525 N.am    1  UNL1       -0.2398
      4 C         142.7003  138.7370  165.2600 C.3     1  UNL1        0.1020
      5 C         142.7759  138.5812  166.7499 C.3     1  UNL1        0.0477
      6 C         142.7642  139.7941  167.6325 C.ar    1  UNL1       -0.0226
      7 C         142.8398  139.6382  169.1224 C.ar    1  UNL1       -0.0045
      8 C         142.8281  140.8511  170.0049 C.ar    1  UNL1       -0.0003
      9 C         142.7407  142.2198  169.3974 C.ar    1  UNL1       -0.0003
     10 C         142.6651  142.3756  167.9074 C.ar    1  UNL1       -0.0027
     11 C         142.6768  141.1628  167.0250 C.ar    1  UNL1       -0.0039
     12 C         142.6012  141.3186  165.5350 C.3     1  UNL1        0.1233
     13 C         142.5138  142.6873  164.9275 C.ar    1  UNL1       -0.0000
     14 C         141.1733  143.3073  164.6654 C.ar    1  UNL1       -0.0023
     15 C         141.0859  144.6760  164.0579 C.ar    1  UNL1       -0.0003
     16 C         142.3391  145.4246  163.7125 C.ar    1  UNL1       -0.0000
     17 C         143.6795  144.8046  163.9746 C.ar    1  UNL1       -0.0003
     18 C         143.7669  143.4359  164.5821 C.ar    1  UNL1       -0.0023
     19 O         142.5491  139.0486  162.2801 O.3     1  UNL1       -0.4368
     20 C         139.9717  138.5720  161.5091 C.3     1  UNL1        0.1863
     21 C         139.3517  137.9246  162.5351 C.3     1  UNL1        0.1163
     22 N         138.9863  137.5358  163.1562 N.3     1  UNL1       -0.2697
     23 C         138.2287  137.8485  161.8999 C.3     1  UNL1        0.0723
     24 C         138.9113  138.5613  160.7703 C.3     1  UNL1        0.0210
     25 C         140.3515  138.9614  160.8970 C.3     1  UNL1        0.0444
     26 C         140.4369  138.4619  162.0942 C.3     1  UNL1        0.0210
     27 C         140.0728  138.0817  162.6967 C.3     1  UNL1        0.0723
@<TRIPOS>BOND
     1     1     2    2
     2     2    19    1
     3    20    19    1
     4    20    21    1
     5    21    22    1
     6    22    23    1
     7    23    24    1
     8    24    25    1
     9    25    26    1
    10    26    27    1
    11     2     3   am
    12     3     4    1
    13     4     5    1
    14     5     6    1
    15     6     7   ar
    16     7     8   ar
    17     8     9   ar
    18     9    10   ar
    19    10    11   ar
    20    11    12    1
    21    12    13    1
    22    13    14   ar
    23    14    15   ar
    24    15    16   ar
    25    16    17   ar
    26    17    18   ar
    27    25    20    1
    28    12     3    1
    29    18    13   ar
    30    27    22    1
    31    11     6   ar
@<TRIPOS>MOLECULE
*****
 27 31 0 0 0
SMALL
GASTEIGER

@<TRIPOS>ATOM
      1 O         141.2938  141.4100  163.0480 O.2     1  UNL1       -0.2262
      2 C         140.5540  140.3101  163.7499 C.2     1  UNL1        0.4052
      3 N         140.2515  140.4254  165.2147 N.am    1  UNL1       -0.2398
      4 C         139.5116  139.3255  165.9166 C.3     1  UNL1        0.1020
      5 C         139.2092  139.4408  167.3812 C.3     1  UNL1        0.0477
      6 C         139.6466  140.6561  168.1440 C.ar    1  UNL1       -0.0226
      7 C         139.3442  140.7714  169.6086 C.ar    1  UNL1       -0.0045
      8 C         139.7816  141.9867  170.3713 C.ar    1  UNL1       -0.0003
      9 C         140.5215  143.0866  169.6694 C.ar    1  UNL1       -0.0003
     10 C         140.8239  142.9713  168.2048 C.ar    1  UNL1       -0.0027
     11 C         140.3865  141.7560  167.4421 C.ar    1  UNL1       -0.0039
     12 C         140.6889  141.6407  165.9774 C.3     1  UNL1        0.1233
     13 C         141.4288  142.7406  165.2754 C.ar    1  UNL1       -0.0000
     14 C         142.9280  142.7231  165.2254 C.ar    1  UNL1       -0.0023
     15 C         143.6678  143.8230  164.5235 C.ar    1  UNL1       -0.0003
     16 C         142.9086  144.9405  163.8716 C.ar    1  UNL1       -0.0000
     17 C         141.4096  144.9580  163.9216 C.ar    1  UNL1       -0.0003
     18 C         140.6697  143.8580  164.6235 C.ar    1  UNL1       -0.0023
     19 O         140.1165  139.0948  162.9872 O.3     1  UNL1       -0.4368
     20 C         142.2556  138.2340  161.5219 C.3     1  UNL1        0.1863
     21 C         141.9091  138.3156  160.2068 C.3     1  UNL1        0.1163
     22 N         141.6932  138.3675  159.4186 N.3     1  UNL1       -0.2697
     23 C         143.0539  137.8692  159.8061 C.3     1  UNL1        0.0723
     24 C         143.4355  137.7793  161.2539 C.3     1  UNL1        0.0210
     25 C         142.4563  138.1879  162.3144 C.3     1  UNL1        0.0444
     26 C         141.5526  138.4956  161.4321 C.3     1  UNL1        0.0210
     27 C         141.3491  138.5435  160.6598 C.3     1  UNL1        0.0723
@<TRIPOS>BOND
     1     1     2    2
     2     2    19    1
     3    20    19    1
     4    20    21    1
     5    21    22    1
     6    22    23    1
     7    23    24    1
     8    24    25    1
     9    25    26    1
    10    26    27    1
    11     2     3   am
    12     3     4    1
    13     4     5    1
    14     5     6    1
    15     6     7   ar
    16     7     8   ar
    17     8     9   ar
    18     9    10   ar
    19    10    11   ar
    20    11    12    1
    21    12    13    1
    22    13    14   ar
    23    14    15   ar
    24    15    16   ar
    25    16    17   ar
    26    17    18   ar
    27    25    20    1
    28    12     3    1
    29    18    13   ar
    30    27    22    1
    31    11     6   ar
