@<TRIPOS>MOLECULE
*****
 36 39 0 0 0
SMALL
GASTEIGER

@<TRIPOS>ATOM
      1 C         139.8709  148.2188  154.0231 C.ar    1  UNL1       -0.0065
      2 C         138.9507  148.6950  155.1077 C.ar    1  UNL1       -0.0033
      3 C         138.9220  147.9887  156.4307 C.ar    1  UNL1       -0.0048
      4 C         139.8135  146.8063  156.6692 C.ar    1  UNL1       -0.0245
      5 C         140.7338  146.3301  155.5846 C.ar    1  UNL1       -0.0263
      6 C         140.7625  147.0363  154.2616 C.ar    1  UNL1       -0.0075
      7 C         141.6254  145.1476  155.8231 C.3     1  UNL1        0.0277
      8 C         141.5967  144.4414  157.1461 C.3     1  UNL1        0.0248
      9 C         140.6764  144.9176  158.2307 C.3     1  UNL1        0.0804
     10 C         139.7848  146.1001  157.9922 C.3     1  UNL1        0.0458
     11 N         140.6477  144.2114  159.5537 N.am    1  UNL1       -0.2756
     12 C         141.1508  142.8025  159.6628 C.3     1  UNL1        0.1151
     13 C         140.1159  144.9140  160.7676 C.2     1  UNL1        0.2490
     14 O         139.6129  146.3229  160.6584 O.2     1  UNL1       -0.2699
     15 C         140.0872  144.2078  162.0906 C.ar    1  UNL1        0.0536
     16 C         141.2860  144.2530  162.9910 C.ar    1  UNL1        0.0045
     17 C         141.2573  143.5468  164.3141 C.ar    1  UNL1        0.0001
     18 C         140.0298  142.7953  164.7366 C.ar    1  UNL1        0.0000
     19 C         138.8310  142.7501  163.8362 C.ar    1  UNL1        0.0001
     20 C         138.8597  143.4564  162.5132 C.ar    1  UNL1        0.0045
     21 C         140.0011  142.0891  166.0597 C.ar    1  UNL1        0.0001
     22 C         139.4644  140.6915  166.1523 C.ar    1  UNL1        0.0023
     23 C         139.4357  139.9853  167.4753 C.ar    1  UNL1        0.0296
     24 C         139.9437  140.6766  168.7057 C.ar    1  UNL1        0.1401
     25 F         139.9150  139.9704  170.0288 F       1  UNL1       -0.2042
     26 C         140.4804  142.0742  168.6131 C.ar    1  UNL1        0.0296
     27 C         140.5091  142.7805  167.2901 C.ar    1  UNL1        0.0023
     28 C         139.8997  148.9250  152.7001 C.3     1  UNL1        0.0995
     29 C         139.2896  151.4485  152.6006 C.3     1  UNL1        0.0903
     30 N         140.3235  150.3620  152.6260 N.3     1  UNL1       -0.2600
     31 C         141.7812  150.7124  152.5773 C.3     1  UNL1        0.1589
     32 C         142.3931  151.5297  153.6762 C.2     1  UNL1        0.2421
     33 O         141.6698  151.6951  154.9798 O.2     1  UNL1       -0.2734
     34 N         143.7285  152.1816  153.4715 N.am    1  UNL1       -0.2749
     35 C         144.3405  152.9988  154.5704 C.3     1  UNL1        0.1149
     36 C         144.4519  152.0162  152.1679 C.3     1  UNL1        0.1149
@<TRIPOS>BOND
     1    29    30    1
     2    30    31    1
     3    31    32    1
     4    32    33    2
     5    32    34   am
     6    34    35    1
     7    34    36    1
     8    30    28    1
     9    28     1    1
    10     1     2   ar
    11     2     3   ar
    12     3     4   ar
    13     4     5   ar
    14     5     6   ar
    15     5     7    1
    16     7     8    1
    17     8     9    1
    18     9    11    1
    19    11    12    1
    20    11    13   am
    21    13    14    2
    22    13    15    1
    23    15    16   ar
    24    16    17   ar
    25    17    18   ar
    26    18    21    1
    27    21    22   ar
    28    22    23   ar
    29    23    24   ar
    30    24    25    1
    31    24    26   ar
    32    26    27   ar
    33    18    19   ar
    34    19    20   ar
    35     9    10    1
    36     6     1   ar
    37    20    15   ar
    38    10     4    1
    39    27    21   ar
@<TRIPOS>MOLECULE
*****
 36 39 0 0 0
SMALL
GASTEIGER

@<TRIPOS>ATOM
      1 C         142.0403  135.4668  154.5097 C.ar    1  UNL1       -0.0065
      2 C         143.3712  135.4192  155.1999 C.ar    1  UNL1       -0.0033
      3 C         143.5642  136.1297  156.5067 C.ar    1  UNL1       -0.0048
      4 C         142.4263  136.8878  157.1234 C.ar    1  UNL1       -0.0245
      5 C         141.0954  136.9354  156.4333 C.ar    1  UNL1       -0.0263
      6 C         140.9024  136.2249  155.1264 C.ar    1  UNL1       -0.0075
      7 C         139.9573  137.6935  157.0500 C.3     1  UNL1        0.0277
      8 C         140.1503  138.4040  158.3569 C.3     1  UNL1        0.0248
      9 C         141.4813  138.3564  159.0470 C.3     1  UNL1        0.0804
     10 C         142.6193  137.5983  158.4303 C.3     1  UNL1        0.0458
     11 N         141.6743  139.0669  160.3539 N.am    1  UNL1       -0.2756
     12 C         142.7233  140.1317  160.4810 C.3     1  UNL1        0.1151
     13 C         140.8184  138.7128  161.5337 C.2     1  UNL1        0.2490
     14 O         139.7695  137.6481  161.4066 O.2     1  UNL1       -0.2699
     15 C         141.0114  139.4233  162.8406 C.ar    1  UNL1        0.0536
     16 C         140.2437  140.6785  163.1323 C.ar    1  UNL1        0.0045
     17 C         140.4367  141.3890  164.4392 C.ar    1  UNL1        0.0001
     18 C         141.3973  140.8443  165.4543 C.ar    1  UNL1        0.0000
     19 C         142.1650  139.5892  165.1625 C.ar    1  UNL1        0.0001
     20 C         141.9720  138.8787  163.8556 C.ar    1  UNL1        0.0045
     21 C         141.5903  141.5549  166.7612 C.ar    1  UNL1        0.0001
     22 C         142.9462  141.5920  167.4016 C.ar    1  UNL1        0.0023
     23 C         143.1392  142.3025  168.7085 C.ar    1  UNL1        0.0296
     24 C         141.9763  142.9759  169.3749 C.ar    1  UNL1        0.1401
     25 F         142.1693  143.6864  170.6818 F       1  UNL1       -0.2042
     26 C         140.6204  142.9387  168.7345 C.ar    1  UNL1        0.0296
     27 C         140.4274  142.2282  167.4276 C.ar    1  UNL1        0.0023
     28 C         141.8473  134.7563  153.2028 C.3     1  UNL1        0.0995
     29 C         140.5654  132.5988  152.5306 C.3     1  UNL1        0.0903
     30 N         141.7505  133.2598  153.1699 N.3     1  UNL1       -0.2600
     31 C         142.8388  132.4242  153.7762 C.3     1  UNL1        0.1589
     32 C         142.6335  131.7831  155.1166 C.2     1  UNL1        0.2421
     33 O         141.6858  132.3966  156.1043 O.2     1  UNL1       -0.2734
     34 N         143.3759  130.5283  155.4694 N.am    1  UNL1       -0.2749
     35 C         143.1706  129.8871  156.8098 C.3     1  UNL1        0.1149
     36 C         144.3236  129.9147  154.4818 C.3     1  UNL1        0.1149
@<TRIPOS>BOND
     1    29    30    1
     2    30    31    1
     3    31    32    1
     4    32    33    2
     5    32    34   am
     6    34    35    1
     7    34    36    1
     8    30    28    1
     9    28     1    1
    10     1     2   ar
    11     2     3   ar
    12     3     4   ar
    13     4     5   ar
    14     5     6   ar
    15     5     7    1
    16     7     8    1
    17     8     9    1
    18     9    11    1
    19    11    12    1
    20    11    13   am
    21    13    14    2
    22    13    15    1
    23    15    16   ar
    24    16    17   ar
    25    17    18   ar
    26    18    21    1
    27    21    22   ar
    28    22    23   ar
    29    23    24   ar
    30    24    25    1
    31    24    26   ar
    32    26    27   ar
    33    18    19   ar
    34    19    20   ar
    35     9    10    1
    36     6     1   ar
    37    20    15   ar
    38    10     4    1
    39    27    21   ar
@<TRIPOS>MOLECULE
*****
 36 39 0 0 0
SMALL
GASTEIGER

@<TRIPOS>ATOM
      1 C         141.5439  140.0848  168.0429 C.ar    1  UNL1       -0.0065
      2 C         142.7530  140.8351  167.5685 C.ar    1  UNL1       -0.0033
      3 C         142.6801  141.6623  166.3194 C.ar    1  UNL1       -0.0048
      4 C         141.3981  141.7394  165.5446 C.ar    1  UNL1       -0.0245
      5 C         140.1889  140.9891  166.0189 C.ar    1  UNL1       -0.0263
      6 C         140.2618  140.1619  167.2681 C.ar    1  UNL1       -0.0075
      7 C         138.9068  141.0661  165.2441 C.3     1  UNL1        0.0277
      8 C         138.8339  141.8934  163.9950 C.3     1  UNL1        0.0248
      9 C         140.0431  142.6436  163.5207 C.3     1  UNL1        0.0804
     10 C         141.3252  142.5666  164.2955 C.3     1  UNL1        0.0458
     11 N         139.9702  143.4709  162.2715 N.am    1  UNL1       -0.2756
     12 C         139.2903  144.8078  162.2960 C.3     1  UNL1        0.1151
     13 C         140.5773  142.9614  160.9980 C.2     1  UNL1        0.2490
     14 O         141.2572  141.6246  160.9737 O.2     1  UNL1       -0.2699
     15 C         140.5044  143.7886  159.7489 C.ar    1  UNL1        0.0536
     16 C         139.5548  143.4083  158.6518 C.ar    1  UNL1        0.0045
     17 C         139.4819  144.2356  157.4027 C.ar    1  UNL1        0.0001
     18 C         140.3586  145.4431  157.2506 C.ar    1  UNL1        0.0000
     19 C         141.3081  145.8235  158.3477 C.ar    1  UNL1        0.0001
     20 C         141.3810  144.9962  159.5969 C.ar    1  UNL1        0.0045
     21 C         140.2857  146.2704  156.0015 C.ar    1  UNL1        0.0001
     22 C         141.0768  145.8721  154.7910 C.ar    1  UNL1        0.0023
     23 C         141.0039  146.6994  153.5418 C.ar    1  UNL1        0.0296
     24 C         140.1399  147.9249  153.5032 C.ar    1  UNL1        0.1401
     25 F         140.0670  148.7522  152.2541 F       1  UNL1       -0.2042
     26 C         139.3488  148.3232  154.7138 C.ar    1  UNL1        0.0296
     27 C         139.4217  147.4959  155.9629 C.ar    1  UNL1        0.0023
     28 C         141.6167  139.2576  169.2920 C.3     1  UNL1        0.0995
     29 C         143.5410  139.6281  170.9979 C.3     1  UNL1        0.0903
     30 N         142.1244  139.8657  170.5658 N.3     1  UNL1       -0.2600
     31 C         141.2153  140.7115  171.4075 C.3     1  UNL1        0.1589
     32 C         140.4378  141.8303  170.7801 C.2     1  UNL1        0.2421
     33 O         138.9554  141.7000  170.5917 O.2     1  UNL1       -0.2734
     34 N         141.1427  143.0796  170.3411 N.am    1  UNL1       -0.2749
     35 C         140.3652  144.1984  169.7137 C.3     1  UNL1        0.1149
     36 C         142.6251  143.2099  170.5295 C.3     1  UNL1        0.1149
@<TRIPOS>BOND
     1    29    30    1
     2    30    31    1
     3    31    32    1
     4    32    33    2
     5    32    34   am
     6    34    35    1
     7    34    36    1
     8    30    28    1
     9    28     1    1
    10     1     2   ar
    11     2     3   ar
    12     3     4   ar
    13     4     5   ar
    14     5     6   ar
    15     5     7    1
    16     7     8    1
    17     8     9    1
    18     9    11    1
    19    11    12    1
    20    11    13   am
    21    13    14    2
    22    13    15    1
    23    15    16   ar
    24    16    17   ar
    25    17    18   ar
    26    18    21    1
    27    21    22   ar
    28    22    23   ar
    29    23    24   ar
    30    24    25    1
    31    24    26   ar
    32    26    27   ar
    33    18    19   ar
    34    19    20   ar
    35     9    10    1
    36     6     1   ar
    37    20    15   ar
    38    10     4    1
    39    27    21   ar
@<TRIPOS>MOLECULE
*****
 36 39 0 0 0
SMALL
GASTEIGER

@<TRIPOS>ATOM
      1 C         139.1252  151.0776  153.8516 C.ar    1  UNL1       -0.0065
      2 C         138.4678  151.1016  155.1996 C.ar    1  UNL1       -0.0033
      3 C         138.5003  149.8816  156.0717 C.ar    1  UNL1       -0.0048
      4 C         139.1902  148.6376  155.5958 C.ar    1  UNL1       -0.0245
      5 C         139.8477  148.6137  154.2478 C.ar    1  UNL1       -0.0263
      6 C         139.8152  149.8337  153.3758 C.ar    1  UNL1       -0.0075
      7 C         140.5377  147.3697  153.7719 C.3     1  UNL1        0.0277
      8 C         140.5702  146.1497  154.6440 C.3     1  UNL1        0.0248
      9 C         139.9127  146.1737  155.9920 C.3     1  UNL1        0.0804
     10 C         139.2227  147.4176  156.4679 C.3     1  UNL1        0.0458
     11 N         139.9452  144.9537  156.8641 N.am    1  UNL1       -0.2756
     12 C         138.9410  143.8584  156.6592 C.3     1  UNL1        0.1151
     13 C         140.9818  144.8290  157.9411 C.2     1  UNL1        0.2490
     14 O         141.9859  145.9243  158.1460 O.2     1  UNL1       -0.2699
     15 C         141.0143  143.6090  158.8132 C.ar    1  UNL1        0.0536
     16 C         140.2415  143.5851  160.0985 C.ar    1  UNL1        0.0045
     17 C         140.2740  142.3651  160.9706 C.ar    1  UNL1        0.0001
     18 C         141.0793  141.1690  160.5574 C.ar    1  UNL1        0.0000
     19 C         141.8521  141.1929  159.2720 C.ar    1  UNL1        0.0001
     20 C         141.8196  142.4129  158.3999 C.ar    1  UNL1        0.0045
     21 C         141.1118  139.9490  161.4295 C.ar    1  UNL1        0.0001
     22 C         139.8426  139.2088  161.7313 C.ar    1  UNL1        0.0023
     23 C         139.8750  137.9888  162.6034 C.ar    1  UNL1        0.0296
     24 C         141.1768  137.5091  163.1737 C.ar    1  UNL1        0.1401
     25 F         141.2093  136.2891  164.0458 F       1  UNL1       -0.2042
     26 C         142.4460  138.2493  162.8719 C.ar    1  UNL1        0.0296
     27 C         142.4135  139.4693  161.9998 C.ar    1  UNL1        0.0023
     28 C         139.0928  152.2976  152.9795 C.3     1  UNL1        0.0995
     29 C         139.4892  154.6328  154.0471 C.3     1  UNL1        0.0903
     30 N         140.0015  153.4541  153.2736 N.3     1  UNL1       -0.2600
     31 C         141.4227  153.4321  152.7941 C.3     1  UNL1        0.1589
     32 C         142.5451  153.3016  153.7805 C.2     1  UNL1        0.2421
     33 O         142.6143  152.1063  154.6841 O.2     1  UNL1       -0.2734
     34 N         143.5984  154.3664  153.8634 N.am    1  UNL1       -0.2749
     35 C         144.7208  154.2359  154.8498 C.3     1  UNL1        0.1149
     36 C         143.5292  155.5617  152.9598 C.3     1  UNL1        0.1149
@<TRIPOS>BOND
     1    29    30    1
     2    30    31    1
     3    31    32    1
     4    32    33    2
     5    32    34   am
     6    34    35    1
     7    34    36    1
     8    30    28    1
     9    28     1    1
    10     1     2   ar
    11     2     3   ar
    12     3     4   ar
    13     4     5   ar
    14     5     6   ar
    15     5     7    1
    16     7     8    1
    17     8     9    1
    18     9    11    1
    19    11    12    1
    20    11    13   am
    21    13    14    2
    22    13    15    1
    23    15    16   ar
    24    16    17   ar
    25    17    18   ar
    26    18    21    1
    27    21    22   ar
    28    22    23   ar
    29    23    24   ar
    30    24    25    1
    31    24    26   ar
    32    26    27   ar
    33    18    19   ar
    34    19    20   ar
    35     9    10    1
    36     6     1   ar
    37    20    15   ar
    38    10     4    1
    39    27    21   ar
@<TRIPOS>MOLECULE
*****
 36 39 0 0 0
SMALL
GASTEIGER

@<TRIPOS>ATOM
      1 C         137.6225  141.7581  154.6148 C.ar    1  UNL1       -0.0065
      2 C         137.4491  143.1028  155.2565 C.ar    1  UNL1       -0.0033
      3 C         137.9585  143.3415  156.6470 C.ar    1  UNL1       -0.0048
      4 C         138.6412  142.2356  157.3958 C.ar    1  UNL1       -0.0245
      5 C         138.8145  140.8909  156.7541 C.ar    1  UNL1       -0.0263
      6 C         138.3052  140.6522  155.3636 C.ar    1  UNL1       -0.0075
      7 C         139.4973  139.7849  157.5030 C.3     1  UNL1        0.0277
      8 C         140.0066  140.0236  158.8935 C.3     1  UNL1        0.0248
      9 C         139.8333  141.3683  159.5352 C.3     1  UNL1        0.0804
     10 C         139.1506  142.4743  158.7864 C.3     1  UNL1        0.0458
     11 N         140.3426  141.6071  160.9257 N.am    1  UNL1       -0.2756
     12 C         141.7945  141.9096  161.1510 C.3     1  UNL1        0.1151
     13 C         139.4002  141.5433  162.0909 C.2     1  UNL1        0.2490
     14 O         137.9485  141.2407  161.8656 O.2     1  UNL1       -0.2699
     15 C         139.9096  141.7820  163.4815 C.ar    1  UNL1        0.0536
     16 C         140.4768  140.6446  164.2780 C.ar    1  UNL1        0.0045
     17 C         140.9861  140.8833  165.6685 C.ar    1  UNL1        0.0001
     18 C         140.9283  142.2594  166.2625 C.ar    1  UNL1        0.0000
     19 C         140.3611  143.3968  165.4660 C.ar    1  UNL1        0.0001
     20 C         139.8517  143.1581  164.0754 C.ar    1  UNL1        0.0045
     21 C         141.4377  142.4981  167.6530 C.ar    1  UNL1        0.0001
     22 C         142.8515  142.1420  168.0053 C.ar    1  UNL1        0.0023
     23 C         143.3609  142.3807  169.3958 C.ar    1  UNL1        0.0296
     24 C         142.4564  142.9756  170.4341 C.ar    1  UNL1        0.1401
     25 F         142.9658  143.2143  171.8246 F       1  UNL1       -0.2042
     26 C         141.0426  143.3317  170.0818 C.ar    1  UNL1        0.0296
     27 C         140.5332  143.0930  168.6913 C.ar    1  UNL1        0.0023
     28 C         137.1131  141.5194  153.2243 C.3     1  UNL1        0.0995
     29 C         135.9979  139.5381  151.9671 C.3     1  UNL1        0.0903
     30 N         135.9320  140.6219  153.0019 N.3     1  UNL1       -0.2600
     31 C         134.6849  140.8082  153.8145 C.3     1  UNL1        0.1589
     32 C         134.4432  139.9545  155.0239 C.2     1  UNL1        0.2421
     33 O         135.3718  138.8191  155.3382 O.2     1  UNL1       -0.2734
     34 N         133.2730  140.2361  155.9191 N.am    1  UNL1       -0.2749
     35 C         133.0313  139.3824  157.1284 C.3     1  UNL1        0.1149
     36 C         132.3444  141.3715  155.6048 C.3     1  UNL1        0.1149
@<TRIPOS>BOND
     1    29    30    1
     2    30    31    1
     3    31    32    1
     4    32    33    2
     5    32    34   am
     6    34    35    1
     7    34    36    1
     8    30    28    1
     9    28     1    1
    10     1     2   ar
    11     2     3   ar
    12     3     4   ar
    13     4     5   ar
    14     5     6   ar
    15     5     7    1
    16     7     8    1
    17     8     9    1
    18     9    11    1
    19    11    12    1
    20    11    13   am
    21    13    14    2
    22    13    15    1
    23    15    16   ar
    24    16    17   ar
    25    17    18   ar
    26    18    21    1
    27    21    22   ar
    28    22    23   ar
    29    23    24   ar
    30    24    25    1
    31    24    26   ar
    32    26    27   ar
    33    18    19   ar
    34    19    20   ar
    35     9    10    1
    36     6     1   ar
    37    20    15   ar
    38    10     4    1
    39    27    21   ar
@<TRIPOS>MOLECULE
*****
 36 39 0 0 0
SMALL
GASTEIGER

@<TRIPOS>ATOM
      1 C         148.3791  142.9008  153.5349 C.ar    1  UNL1       -0.0065
      2 C         149.0220  142.3565  154.7760 C.ar    1  UNL1       -0.0033
      3 C         148.1848  142.0530  155.9830 C.ar    1  UNL1       -0.0048
      4 C         146.7047  142.2938  155.9489 C.ar    1  UNL1       -0.0245
      5 C         146.0618  142.8381  154.7078 C.ar    1  UNL1       -0.0263
      6 C         146.8990  143.1416  153.5008 C.ar    1  UNL1       -0.0075
      7 C         144.5816  143.0789  154.6737 C.3     1  UNL1        0.0277
      8 C         143.7443  142.7755  155.8807 C.3     1  UNL1        0.0248
      9 C         144.3873  142.2312  157.1219 C.3     1  UNL1        0.0804
     10 C         145.8674  141.9904  157.1560 C.3     1  UNL1        0.0458
     11 N         143.5501  141.9277  158.3289 N.am    1  UNL1       -0.2756
     12 C         143.0554  143.0452  159.1988 C.3     1  UNL1        0.1151
     13 C         143.2075  140.5068  158.6661 C.2     1  UNL1        0.2490
     14 O         143.7022  139.3894  157.7963 O.2     1  UNL1       -0.2699
     15 C         142.3703  140.2034  159.8732 C.ar    1  UNL1        0.0536
     16 C         140.8754  140.1611  159.7576 C.ar    1  UNL1        0.0045
     17 C         140.0381  139.8576  160.9647 C.ar    1  UNL1        0.0001
     18 C         140.6958  139.5964  162.2872 C.ar    1  UNL1        0.0000
     19 C         142.1907  139.6387  162.4027 C.ar    1  UNL1        0.0001
     20 C         143.0279  139.9421  161.1957 C.ar    1  UNL1        0.0045
     21 C         139.8586  139.2929  163.4943 C.ar    1  UNL1        0.0001
     22 C         139.7394  137.8819  163.9889 C.ar    1  UNL1        0.0023
     23 C         138.9022  137.5784  165.1959 C.ar    1  UNL1        0.0296
     24 C         138.1841  138.6860  165.9083 C.ar    1  UNL1        0.1401
     25 F         137.3468  138.3825  167.1154 F       1  UNL1       -0.2042
     26 C         138.3032  140.0970  165.4137 C.ar    1  UNL1        0.0296
     27 C         139.1404  140.4005  164.2067 C.ar    1  UNL1        0.0023
     28 C         149.2164  143.2043  152.3278 C.3     1  UNL1        0.0995
     29 C         151.1865  141.5495  151.9670 C.3     1  UNL1        0.0903
     30 N         150.6877  142.9132  152.3432 N.3     1  UNL1       -0.2600
     31 C         151.6605  143.9859  152.7348 C.3     1  UNL1        0.1589
     32 C         152.7189  143.7012  153.7587 C.2     1  UNL1        0.2421
     33 O         152.3890  142.8804  154.9702 O.2     1  UNL1       -0.2734
     34 N         154.1073  144.2371  153.5713 N.am    1  UNL1       -0.2749
     35 C         155.1658  143.9524  154.5953 C.3     1  UNL1        0.1149
     36 C         154.4372  145.0579  152.3599 C.3     1  UNL1        0.1149
@<TRIPOS>BOND
     1    29    30    1
     2    30    31    1
     3    31    32    1
     4    32    33    2
     5    32    34   am
     6    34    35    1
     7    34    36    1
     8    30    28    1
     9    28     1    1
    10     1     2   ar
    11     2     3   ar
    12     3     4   ar
    13     4     5   ar
    14     5     6   ar
    15     5     7    1
    16     7     8    1
    17     8     9    1
    18     9    11    1
    19    11    12    1
    20    11    13   am
    21    13    14    2
    22    13    15    1
    23    15    16   ar
    24    16    17   ar
    25    17    18   ar
    26    18    21    1
    27    21    22   ar
    28    22    23   ar
    29    23    24   ar
    30    24    25    1
    31    24    26   ar
    32    26    27   ar
    33    18    19   ar
    34    19    20   ar
    35     9    10    1
    36     6     1   ar
    37    20    15   ar
    38    10     4    1
    39    27    21   ar
@<TRIPOS>MOLECULE
*****
 36 39 0 0 0
SMALL
GASTEIGER

@<TRIPOS>ATOM
      1 C         140.1761  137.1178  154.9497 C.ar    1  UNL1       -0.0065
      2 C         139.1066  138.0259  155.4801 C.ar    1  UNL1       -0.0033
      3 C         139.2372  138.6171  156.8525 C.ar    1  UNL1       -0.0048
      4 C         140.4375  138.3003  157.6944 C.ar    1  UNL1       -0.0245
      5 C         141.5071  137.3923  157.1641 C.ar    1  UNL1       -0.0263
      6 C         141.3764  136.8010  155.7917 C.ar    1  UNL1       -0.0075
      7 C         142.7074  137.0754  158.0060 C.3     1  UNL1        0.0277
      8 C         142.8381  137.6667  159.3784 C.3     1  UNL1        0.0248
      9 C         141.7684  138.5748  159.9087 C.3     1  UNL1        0.0804
     10 C         140.5682  138.8916  159.0668 C.3     1  UNL1        0.0458
     11 N         141.8991  139.1660  161.2811 N.am    1  UNL1       -0.2756
     12 C         142.5033  140.5278  161.4566 C.3     1  UNL1        0.1151
     13 C         141.4257  138.3956  162.4779 C.2     1  UNL1        0.2490
     14 O         140.8217  137.0340  162.3023 O.2     1  UNL1       -0.2699
     15 C         141.5564  138.9869  163.8502 C.ar    1  UNL1        0.0536
     16 C         140.4301  139.7889  164.4317 C.ar    1  UNL1        0.0045
     17 C         140.5608  140.3801  165.8041 C.ar    1  UNL1        0.0001
     18 C         141.8178  140.1694  166.5949 C.ar    1  UNL1        0.0000
     19 C         142.9441  139.3675  166.0134 C.ar    1  UNL1        0.0001
     20 C         142.8134  138.7762  164.6410 C.ar    1  UNL1        0.0045
     21 C         141.9485  140.7607  167.9672 C.ar    1  UNL1        0.0001
     22 C         141.1246  140.2204  169.0982 C.ar    1  UNL1        0.0023
     23 C         141.2552  140.8117  170.4706 C.ar    1  UNL1        0.0296
     24 C         142.2099  141.9432  170.7119 C.ar    1  UNL1        0.1401
     25 F         142.3405  142.5345  172.0843 F       1  UNL1       -0.2042
     26 C         143.0338  142.4835  169.5809 C.ar    1  UNL1        0.0296
     27 C         142.9031  141.8922  168.2086 C.ar    1  UNL1        0.0023
     28 C         140.0454  136.5265  153.5774 C.3     1  UNL1        0.0995
     29 C         141.8820  137.6445  152.1190 C.3     1  UNL1        0.0903
     30 N         141.2512  136.4105  152.6928 N.3     1  UNL1       -0.2600
     31 C         141.8263  135.0603  152.3820 C.3     1  UNL1        0.1589
     32 C         141.0883  133.8192  152.7881 C.2     1  UNL1        0.2421
     33 O         139.9313  133.3321  151.9670 O.2     1  UNL1       -0.2734
     34 N         141.5072  133.0652  154.0154 N.am    1  UNL1       -0.2749
     35 C         140.7691  131.8241  154.4215 C.3     1  UNL1        0.1149
     36 C         142.6641  133.5524  154.8365 C.3     1  UNL1        0.1149
@<TRIPOS>BOND
     1    29    30    1
     2    30    31    1
     3    31    32    1
     4    32    33    2
     5    32    34   am
     6    34    35    1
     7    34    36    1
     8    30    28    1
     9    28     1    1
    10     1     2   ar
    11     2     3   ar
    12     3     4   ar
    13     4     5   ar
    14     5     6   ar
    15     5     7    1
    16     7     8    1
    17     8     9    1
    18     9    11    1
    19    11    12    1
    20    11    13   am
    21    13    14    2
    22    13    15    1
    23    15    16   ar
    24    16    17   ar
    25    17    18   ar
    26    18    21    1
    27    21    22   ar
    28    22    23   ar
    29    23    24   ar
    30    24    25    1
    31    24    26   ar
    32    26    27   ar
    33    18    19   ar
    34    19    20   ar
    35     9    10    1
    36     6     1   ar
    37    20    15   ar
    38    10     4    1
    39    27    21   ar
@<TRIPOS>MOLECULE
*****
 36 39 0 0 0
SMALL
GASTEIGER

@<TRIPOS>ATOM
      1 C         138.1565  141.8048  154.5998 C.ar    1  UNL1       -0.0065
      2 C         138.1074  140.4395  155.2189 C.ar    1  UNL1       -0.0033
      3 C         138.4922  140.2537  156.6567 C.ar    1  UNL1       -0.0048
      4 C         138.9261  141.4333  157.4754 C.ar    1  UNL1       -0.0245
      5 C         138.9752  142.7986  156.8563 C.ar    1  UNL1       -0.0263
      6 C         138.5904  142.9844  155.4185 C.ar    1  UNL1       -0.0075
      7 C         139.4091  143.9783  157.6750 C.3     1  UNL1        0.0277
      8 C         139.7939  143.7925  159.1129 C.3     1  UNL1        0.0248
      9 C         139.7448  142.4270  159.7320 C.3     1  UNL1        0.0804
     10 C         139.3109  141.2475  158.9133 C.3     1  UNL1        0.0458
     11 N         140.1296  142.2413  161.1699 N.am    1  UNL1       -0.2756
     12 C         141.5655  142.0123  161.5384 C.3     1  UNL1        0.1151
     13 C         139.0785  142.2844  162.2391 C.2     1  UNL1        0.2490
     14 O         137.6427  142.5133  161.8706 O.2     1  UNL1       -0.2699
     15 C         139.4633  142.0986  163.6770 C.ar    1  UNL1        0.0536
     16 C         139.3909  140.7374  164.3029 C.ar    1  UNL1        0.0045
     17 C         139.7757  140.5516  165.7407 C.ar    1  UNL1        0.0001
     18 C         140.2329  141.7270  166.5527 C.ar    1  UNL1        0.0000
     19 C         140.3053  143.0882  165.9268 C.ar    1  UNL1        0.0001
     20 C         139.9205  143.2740  164.4889 C.ar    1  UNL1        0.0045
     21 C         140.6177  141.5412  167.9905 C.ar    1  UNL1        0.0001
     22 C         140.7175  142.7300  168.8999 C.ar    1  UNL1        0.0023
     23 C         141.1023  142.5442  170.3377 C.ar    1  UNL1        0.0296
     24 C         141.3874  141.1697  170.8662 C.ar    1  UNL1        0.1401
     25 F         141.7722  140.9839  172.3041 F       1  UNL1       -0.2042
     26 C         141.2876  139.9809  169.9569 C.ar    1  UNL1        0.0296
     27 C         140.9028  140.1667  168.5191 C.ar    1  UNL1        0.0023
     28 C         137.7717  141.9906  153.1619 C.3     1  UNL1        0.0995
     29 C         135.9031  143.5510  152.2543 C.3     1  UNL1        0.0903
     30 N         136.3359  142.2198  152.7933 N.3     1  UNL1       -0.2600
     31 C         135.3327  141.1176  152.9639 C.3     1  UNL1        0.1589
     32 C         133.9568  141.4281  153.4743 C.2     1  UNL1        0.2421
     33 O         132.9110  141.9565  152.5378 O.2     1  UNL1       -0.2734
     34 N         133.6268  141.2103  154.9212 N.am    1  UNL1       -0.2749
     35 C         132.2509  141.5208  155.4317 C.3     1  UNL1        0.1149
     36 C         134.6726  140.6820  155.8578 C.3     1  UNL1        0.1149
@<TRIPOS>BOND
     1    29    30    1
     2    30    31    1
     3    31    32    1
     4    32    33    2
     5    32    34   am
     6    34    35    1
     7    34    36    1
     8    30    28    1
     9    28     1    1
    10     1     2   ar
    11     2     3   ar
    12     3     4   ar
    13     4     5   ar
    14     5     6   ar
    15     5     7    1
    16     7     8    1
    17     8     9    1
    18     9    11    1
    19    11    12    1
    20    11    13   am
    21    13    14    2
    22    13    15    1
    23    15    16   ar
    24    16    17   ar
    25    17    18   ar
    26    18    21    1
    27    21    22   ar
    28    22    23   ar
    29    23    24   ar
    30    24    25    1
    31    24    26   ar
    32    26    27   ar
    33    18    19   ar
    34    19    20   ar
    35     9    10    1
    36     6     1   ar
    37    20    15   ar
    38    10     4    1
    39    27    21   ar
@<TRIPOS>MOLECULE
*****
 36 39 0 0 0
SMALL
GASTEIGER

@<TRIPOS>ATOM
      1 C         140.9331  145.1517  154.1695 C.ar    1  UNL1       -0.0065
      2 C         142.1972  145.4159  154.9326 C.ar    1  UNL1       -0.0033
      3 C         142.3116  144.9878  156.3656 C.ar    1  UNL1       -0.0048
      4 C         141.1620  144.2955  157.0356 C.ar    1  UNL1       -0.0245
      5 C         139.8979  144.0313  156.2726 C.ar    1  UNL1       -0.0263
      6 C         139.7835  144.4594  154.8395 C.ar    1  UNL1       -0.0075
      7 C         138.7482  143.3390  156.9426 C.3     1  UNL1        0.0277
      8 C         138.8626  142.9108  158.3756 C.3     1  UNL1        0.0248
      9 C         140.1268  143.1751  159.1387 C.3     1  UNL1        0.0804
     10 C         141.2764  143.8674  158.4687 C.3     1  UNL1        0.0458
     11 N         140.2412  142.7469  160.5717 N.am    1  UNL1       -0.2756
     12 C         140.7562  141.3785  160.9068 C.3     1  UNL1        0.1151
     13 C         139.8407  143.6872  161.6696 C.2     1  UNL1        0.2490
     14 O         139.3257  145.0555  161.3345 O.2     1  UNL1       -0.2699
     15 C         139.9551  143.2591  163.1027 C.ar    1  UNL1        0.0536
     16 C         138.7899  142.6067  163.7859 C.ar    1  UNL1        0.0045
     17 C         138.9044  142.1785  165.2189 C.ar    1  UNL1        0.0001
     18 C         140.1839  142.4028  165.9688 C.ar    1  UNL1        0.0000
     19 C         141.3491  143.0552  165.2856 C.ar    1  UNL1        0.0001
     20 C         141.2346  143.4833  163.8526 C.ar    1  UNL1        0.0045
     21 C         140.2983  141.9747  167.4018 C.ar    1  UNL1        0.0001
     22 C         140.2669  140.5170  167.7539 C.ar    1  UNL1        0.0023
     23 C         140.3813  140.0888  169.1869 C.ar    1  UNL1        0.0296
     24 C         140.5272  141.1184  170.2679 C.ar    1  UNL1        0.1401
     25 F         140.6416  140.6903  171.7010 F       1  UNL1       -0.2042
     26 C         140.5586  142.5762  169.9159 C.ar    1  UNL1        0.0296
     27 C         140.4442  143.0043  168.4828 C.ar    1  UNL1        0.0023
     28 C         140.8187  145.5799  152.7365 C.3     1  UNL1        0.0995
     29 C         143.0346  146.7297  152.0169 C.3     1  UNL1        0.0903
     30 N         141.5551  146.7949  152.2556 N.3     1  UNL1       -0.2600
     31 C         140.8121  148.0753  152.0135 C.3     1  UNL1        0.1589
     32 C         141.3052  149.3550  152.6212 C.2     1  UNL1        0.2421
     33 O         142.4206  150.1150  151.9669 O.2     1  UNL1       -0.2734
     34 N         140.6828  149.8747  153.8832 N.am    1  UNL1       -0.2749
     35 C         141.1759  151.1544  154.4909 C.3     1  UNL1        0.1149
     36 C         139.5673  149.1147  154.5375 C.3     1  UNL1        0.1149
@<TRIPOS>BOND
     1    29    30    1
     2    30    31    1
     3    31    32    1
     4    32    33    2
     5    32    34   am
     6    34    35    1
     7    34    36    1
     8    30    28    1
     9    28     1    1
    10     1     2   ar
    11     2     3   ar
    12     3     4   ar
    13     4     5   ar
    14     5     6   ar
    15     5     7    1
    16     7     8    1
    17     8     9    1
    18     9    11    1
    19    11    12    1
    20    11    13   am
    21    13    14    2
    22    13    15    1
    23    15    16   ar
    24    16    17   ar
    25    17    18   ar
    26    18    21    1
    27    21    22   ar
    28    22    23   ar
    29    23    24   ar
    30    24    25    1
    31    24    26   ar
    32    26    27   ar
    33    18    19   ar
    34    19    20   ar
    35     9    10    1
    36     6     1   ar
    37    20    15   ar
    38    10     4    1
    39    27    21   ar
