@<TRIPOS>MOLECULE
*****
 42 45 0 0 0
SMALL
GASTEIGER

@<TRIPOS>ATOM
      1 C         141.8426  140.9902  162.3804 C.3     1  UNL1        0.0799
      2 C         141.6129  140.7409  163.8416 C.ar    1  UNL1        0.0374
      3 C         141.3194  141.8891  164.7612 C.ar    1  UNL1        0.0023
      4 C         141.0897  141.6399  166.2224 C.ar    1  UNL1        0.0183
      5 C         140.7961  142.7880  167.1420 C.ar    1  UNL1        0.0118
      6 C         140.5665  142.5388  168.6032 C.ar    1  UNL1        0.0685
      7 C         140.6304  141.1415  169.1449 C.ar    1  UNL1        0.0118
      8 C         140.9240  139.9933  168.2253 C.ar    1  UNL1        0.0199
      9 C         141.1537  140.2425  166.7641 C.ar    1  UNL1        0.0844
     10 N         141.4472  139.0944  165.8445 N.ar    1  UNL1       -0.2119
     11 C         141.6769  139.3436  164.3833 C.ar    1  UNL1        0.2211
     12 C         140.2729  143.6869  169.5228 C.1     1  UNL1        0.1004
     13 N         139.9793  144.8350  170.4424 N.1     1  UNL1       -0.1908
     14 O         141.9705  138.1955  163.4637 O.3     1  UNL1       -0.4563
     15 C         140.9811  137.0770  163.3209 C.3     1  UNL1        0.2542
     16 C         141.1069  140.1778  161.3563 C.ar    1  UNL1        0.0148
     17 C         139.6079  140.1287  161.3736 C.ar    1  UNL1       -0.0014
     18 C         138.8721  139.3163  160.3495 C.ar    1  UNL1        0.0029
     19 C         139.6356  138.5530  159.3081 C.ar    1  UNL1        0.0392
     20 C         141.1347  138.6021  159.2908 C.ar    1  UNL1        0.1657
     21 C         141.8704  139.4145  160.3149 C.ar    1  UNL1        0.1702
     22 F         143.3694  139.4635  160.2976 F       1  UNL1       -0.2013
     23 O         141.8981  137.8387  158.2494 O.3     1  UNL1       -0.4692
     24 C         141.2389  137.4760  156.9517 C.3     1  UNL1        0.2526
     25 C         142.8079  142.0518  161.9433 C.3     1  UNL1        0.1161
     26 O         143.9186  141.3328  162.6499 O.3     1  UNL1       -0.3820
     27 H         144.7466  141.8251  162.5357 H       1  UNL1        0.2107
     28 C         139.5033  144.1600  161.3225 C.ar    1  UNL1        0.2252
     29 C         140.6141  143.4410  162.0290 C.ar    1  UNL1        0.0557
     30 C         141.6971  142.7709  161.2367 C.ar    1  UNL1        0.0090
     31 C         141.6695  142.8198  159.7378 C.ar    1  UNL1        0.0237
     32 C         140.5587  143.5388  159.0312 C.ar    1  UNL1        0.1096
     33 N         139.4757  144.2089  159.8235 N.ar    1  UNL1       -0.2054
     34 C         137.8030  144.1258  163.2866 C.3     1  UNL1        0.2542
     35 O         138.4202  144.8302  162.1149 O.3     1  UNL1       -0.4561
     36 S         140.5311  143.5877  157.5322 S.3     1  UNL1       -0.0939
     37 C         139.6522  144.5800  156.8303 C.3     1  UNL1        0.0757
     38 C         143.7732  143.1135  161.5062 C.3     1  UNL1        0.0491
     39 C         144.6052  143.8358  162.5241 C.3     1  UNL1        0.0750
     40 N         143.9985  144.2485  163.8324 N.3     1  UNL1       -0.2702
     41 C         144.4738  143.6228  165.1100 C.3     1  UNL1        0.0897
     42 C         142.9165  145.2868  163.8630 C.3     1  UNL1        0.0897
@<TRIPOS>BOND
     1    34    35    1
     2    35    28    1
     3    28    29   ar
     4    29    30   ar
     5    30    25    1
     6    25    26    1
     7    25    38    1
     8    38    39    1
     9    39    40    1
    10    40    41    1
    11    40    42    1
    12    25     1    1
    13     1     2    1
    14     2     3   ar
    15     3     4   ar
    16     4     5   ar
    17     5     6   ar
    18     6    12    1
    19    12    13    3
    20     6     7   ar
    21     7     8   ar
    22     8     9   ar
    23     9    10   ar
    24    10    11   ar
    25    11    14    1
    26    14    15    1
    27     1    16    1
    28    16    17   ar
    29    17    18   ar
    30    18    19   ar
    31    19    20   ar
    32    20    23    1
    33    23    24    1
    34    20    21   ar
    35    21    22    1
    36    30    31   ar
    37    31    32   ar
    38    32    36    1
    39    36    37    1
    40    32    33   ar
    41    33    28   ar
    42    11     2   ar
    43    21    16   ar
    44     9     4   ar
    45    26    27    1
@<TRIPOS>MOLECULE
*****
 42 45 0 0 0
SMALL
GASTEIGER

@<TRIPOS>ATOM
      1 C         141.4027  142.3602  162.5111 C.3     1  UNL1        0.0799
      2 C         141.8811  142.2968  163.9315 C.ar    1  UNL1        0.0374
      3 C         141.0296  141.6466  164.9813 C.ar    1  UNL1        0.0023
      4 C         141.5079  141.5832  166.4016 C.ar    1  UNL1        0.0183
      5 C         140.6564  140.9330  167.4514 C.ar    1  UNL1        0.0118
      6 C         141.1348  140.8697  168.8717 C.ar    1  UNL1        0.0685
      7 C         142.4646  141.4565  169.2421 C.ar    1  UNL1        0.0118
      8 C         143.3161  142.1067  168.1923 C.ar    1  UNL1        0.0199
      9 C         142.8378  142.1701  166.7720 C.ar    1  UNL1        0.0844
     10 N         143.6893  142.8203  165.7222 N.ar    1  UNL1       -0.2119
     11 C         143.2109  142.8836  164.3018 C.ar    1  UNL1        0.2211
     12 C         140.2833  140.2195  169.9216 C.1     1  UNL1        0.1004
     13 N         139.4318  139.5693  170.9715 N.1     1  UNL1       -0.1908
     14 O         144.0624  143.5338  163.2520 O.3     1  UNL1       -0.4563
     15 C         143.9632  145.0118  163.0153 C.3     1  UNL1        0.2542
     16 C         142.2677  141.8344  161.4042 C.ar    1  UNL1        0.0148
     17 C         142.6240  142.7188  160.2463 C.ar    1  UNL1       -0.0014
     18 C         143.4890  142.1930  159.1393 C.ar    1  UNL1        0.0029
     19 C         143.9977  140.7828  159.1904 C.ar    1  UNL1        0.0392
     20 C         143.6413  139.8984  160.3484 C.ar    1  UNL1        0.1657
     21 C         142.7763  140.4242  161.4553 C.ar    1  UNL1        0.1702
     22 F         142.4200  139.5398  162.6132 F       1  UNL1       -0.2013
     23 O         144.1500  138.4882  160.3994 O.3     1  UNL1       -0.4692
     24 C         143.1976  137.3410  160.2353 C.3     1  UNL1        0.2526
     25 C         140.0593  142.9494  162.1978 C.3     1  UNL1        0.1161
     26 O         140.5367  144.2900  162.6719 O.3     1  UNL1       -0.3820
     27 H         139.8206  144.9382  162.5831 H       1  UNL1        0.2107
     28 C         138.7631  140.0618  159.8037 C.ar    1  UNL1        0.2252
     29 C         139.2405  141.4025  160.2778 C.ar    1  UNL1        0.0557
     30 C         139.5819  141.6087  161.7237 C.ar    1  UNL1        0.0090
     31 C         139.4459  140.4743  162.6956 C.ar    1  UNL1        0.0237
     32 C         138.9685  139.1337  162.2216 C.ar    1  UNL1        0.1096
     33 N         138.6271  138.9274  160.7756 N.ar    1  UNL1       -0.2054
     34 C         137.6869  140.9222  157.6010 C.3     1  UNL1        0.2542
     35 O         138.4217  139.8556  158.3577 O.3     1  UNL1       -0.4561
     36 S         138.8324  137.9993  163.1935 S.3     1  UNL1       -0.0939
     37 C         139.4694  138.0921  164.5484 C.3     1  UNL1        0.0757
     38 C         138.7159  143.5386  161.8845 C.3     1  UNL1        0.0491
     39 C         138.0090  144.3792  162.9060 C.3     1  UNL1        0.0750
     40 N         138.0164  143.9703  164.3491 N.3     1  UNL1       -0.2702
     41 C         137.5338  142.6062  164.7446 C.3     1  UNL1        0.0897
     42 C         138.5065  144.9253  165.3968 C.3     1  UNL1        0.0897
@<TRIPOS>BOND
     1    34    35    1
     2    35    28    1
     3    28    29   ar
     4    29    30   ar
     5    30    25    1
     6    25    26    1
     7    25    38    1
     8    38    39    1
     9    39    40    1
    10    40    41    1
    11    40    42    1
    12    25     1    1
    13     1     2    1
    14     2     3   ar
    15     3     4   ar
    16     4     5   ar
    17     5     6   ar
    18     6    12    1
    19    12    13    3
    20     6     7   ar
    21     7     8   ar
    22     8     9   ar
    23     9    10   ar
    24    10    11   ar
    25    11    14    1
    26    14    15    1
    27     1    16    1
    28    16    17   ar
    29    17    18   ar
    30    18    19   ar
    31    19    20   ar
    32    20    23    1
    33    23    24    1
    34    20    21   ar
    35    21    22    1
    36    30    31   ar
    37    31    32   ar
    38    32    36    1
    39    36    37    1
    40    32    33   ar
    41    33    28   ar
    42    11     2   ar
    43    21    16   ar
    44     9     4   ar
    45    26    27    1
@<TRIPOS>MOLECULE
*****
 42 45 0 0 0
SMALL
GASTEIGER

@<TRIPOS>ATOM
      1 C         140.7318  140.7733  162.6350 C.3     1  UNL1        0.0799
      2 C         140.1559  140.4744  163.9874 C.ar    1  UNL1        0.0374
      3 C         140.8157  141.0174  165.2202 C.ar    1  UNL1        0.0023
      4 C         140.2398  140.7184  166.5726 C.ar    1  UNL1        0.0183
      5 C         140.8996  141.2614  167.8055 C.ar    1  UNL1        0.0118
      6 C         140.3236  140.9625  169.1579 C.ar    1  UNL1        0.0685
      7 C         139.0880  140.1205  169.2775 C.ar    1  UNL1        0.0118
      8 C         138.4283  139.5775  168.0446 C.ar    1  UNL1        0.0199
      9 C         139.0041  139.8765  166.6922 C.ar    1  UNL1        0.0844
     10 N         138.3443  139.3335  165.4594 N.ar    1  UNL1       -0.2119
     11 C         138.9203  139.6324  164.1070 C.ar    1  UNL1        0.2211
     12 C         140.9834  141.5055  170.3907 C.1     1  UNL1        0.1004
     13 N         141.6432  142.0484  171.6235 N.1     1  UNL1       -0.1908
     14 O         138.2605  139.0894  162.8742 O.3     1  UNL1       -0.4563
     15 C         138.5172  137.6744  162.4475 C.3     1  UNL1        0.2542
     16 C         141.5462  139.7359  161.9206 C.ar    1  UNL1        0.0148
     17 C         142.7099  139.0892  162.6116 C.ar    1  UNL1       -0.0014
     18 C         143.5244  138.0517  161.8972 C.ar    1  UNL1        0.0029
     19 C         143.1751  137.6609  160.4918 C.ar    1  UNL1        0.0392
     20 C         142.0113  138.3076  159.8008 C.ar    1  UNL1        0.1657
     21 C         141.1969  139.3451  160.5152 C.ar    1  UNL1        0.1702
     22 F         140.0332  139.9917  159.8241 F       1  UNL1       -0.2013
     23 O         141.6620  137.9168  158.3953 O.3     1  UNL1       -0.4692
     24 C         142.1261  138.7602  157.2450 C.3     1  UNL1        0.2526
     25 C         140.4933  142.1098  161.9970 C.3     1  UNL1        0.1161
     26 O         139.0288  141.8009  161.8975 O.3     1  UNL1       -0.3820
     27 H         138.5677  142.5492  161.4871 H       1  UNL1        0.2107
     28 C         144.2691  142.7530  160.9583 C.ar    1  UNL1        0.2252
     29 C         142.8047  142.4441  160.8588 C.ar    1  UNL1        0.0557
     30 C         141.9578  142.4187  162.0965 C.ar    1  UNL1        0.0090
     31 C         142.5753  142.7020  163.4337 C.ar    1  UNL1        0.0237
     32 C         144.0398  143.0109  163.5332 C.ar    1  UNL1        0.1096
     33 N         144.8867  143.0364  162.2955 N.ar    1  UNL1       -0.2054
     34 C         144.4814  142.5958  158.3736 C.3     1  UNL1        0.2542
     35 O         145.1161  142.7785  159.7204 O.3     1  UNL1       -0.4561
     36 S         144.6574  143.2943  164.8706 S.3     1  UNL1       -0.0939
     37 C         143.9021  142.9785  166.1275 C.3     1  UNL1        0.0757
     38 C         140.2547  143.4462  161.3591 C.3     1  UNL1        0.0491
     39 C         139.9329  144.6376  162.2117 C.3     1  UNL1        0.0750
     40 N         139.0430  144.4842  163.4095 N.3     1  UNL1       -0.2702
     41 C         139.6331  144.4949  164.7884 C.3     1  UNL1        0.0897
     42 C         137.5631  144.3203  163.2282 C.3     1  UNL1        0.0897
@<TRIPOS>BOND
     1    34    35    1
     2    35    28    1
     3    28    29   ar
     4    29    30   ar
     5    30    25    1
     6    25    26    1
     7    25    38    1
     8    38    39    1
     9    39    40    1
    10    40    41    1
    11    40    42    1
    12    25     1    1
    13     1     2    1
    14     2     3   ar
    15     3     4   ar
    16     4     5   ar
    17     5     6   ar
    18     6    12    1
    19    12    13    3
    20     6     7   ar
    21     7     8   ar
    22     8     9   ar
    23     9    10   ar
    24    10    11   ar
    25    11    14    1
    26    14    15    1
    27     1    16    1
    28    16    17   ar
    29    17    18   ar
    30    18    19   ar
    31    19    20   ar
    32    20    23    1
    33    23    24    1
    34    20    21   ar
    35    21    22    1
    36    30    31   ar
    37    31    32   ar
    38    32    36    1
    39    36    37    1
    40    32    33   ar
    41    33    28   ar
    42    11     2   ar
    43    21    16   ar
    44     9     4   ar
    45    26    27    1
@<TRIPOS>MOLECULE
*****
 42 45 0 0 0
SMALL
GASTEIGER

@<TRIPOS>ATOM
      1 C         141.5743  140.7949  162.5669 C.3     1  UNL1        0.0799
      2 C         141.8531  140.4027  163.9876 C.ar    1  UNL1        0.0374
      3 C         142.0275  141.4601  165.0371 C.ar    1  UNL1        0.0023
      4 C         142.3063  141.0680  166.4578 C.ar    1  UNL1        0.0183
      5 C         142.4807  142.1255  167.5073 C.ar    1  UNL1        0.0118
      6 C         142.7595  141.7333  168.9281 C.ar    1  UNL1        0.0685
      7 C         142.8639  140.2837  169.2993 C.ar    1  UNL1        0.0118
      8 C         142.6895  139.2263  168.2499 C.ar    1  UNL1        0.0199
      9 C         142.4107  139.6184  166.8291 C.ar    1  UNL1        0.0844
     10 N         142.2362  138.5610  165.7797 N.ar    1  UNL1       -0.2119
     11 C         141.9574  138.9531  164.3589 C.ar    1  UNL1        0.2211
     12 C         142.9340  142.7907  169.9776 C.1     1  UNL1        0.1004
     13 N         143.1084  143.8482  171.0270 N.1     1  UNL1       -0.1908
     14 O         141.7830  137.8957  163.3094 O.3     1  UNL1       -0.4563
     15 C         140.6134  136.9587  163.3759 C.3     1  UNL1        0.2542
     16 C         140.3157  140.3326  161.8944 C.ar    1  UNL1        0.0148
     17 C         138.9910  140.5188  162.5729 C.ar    1  UNL1       -0.0014
     18 C         137.7323  140.0565  161.9005 C.ar    1  UNL1        0.0029
     19 C         137.7984  139.4080  160.5495 C.ar    1  UNL1        0.0392
     20 C         139.1232  139.2218  159.8710 C.ar    1  UNL1        0.1657
     21 C         140.3818  139.6841  160.5434 C.ar    1  UNL1        0.1702
     22 F         141.7065  139.4979  159.8649 F       1  UNL1       -0.2013
     23 O         139.1894  138.5733  158.5200 O.3     1  UNL1       -0.4692
     24 C         139.4923  139.3998  157.3054 C.3     1  UNL1        0.2526
     25 C         142.5541  141.6493  161.8186 C.3     1  UNL1        0.1161
     26 O         143.6060  140.5939  161.9909 O.3     1  UNL1       -0.3820
     27 H         144.4301  140.8874  161.5718 H       1  UNL1        0.2107
     28 C         140.0318  144.1842  160.0976 C.ar    1  UNL1        0.2252
     29 C         141.0837  143.1288  160.2698 C.ar    1  UNL1        0.0557
     30 C         141.5022  142.7047  161.6464 C.ar    1  UNL1        0.0090
     31 C         140.8688  143.3359  162.8506 C.ar    1  UNL1        0.0237
     32 C         139.8169  144.3913  162.6784 C.ar    1  UNL1        0.1096
     33 N         139.3984  144.8155  161.3018 N.ar    1  UNL1       -0.2054
     34 C         140.3122  145.7492  158.0427 C.3     1  UNL1        0.2542
     35 O         139.6132  144.6083  158.7209 O.3     1  UNL1       -0.4561
     36 S         139.1836  145.0226  163.8827 S.3     1  UNL1       -0.0939
     37 C         138.6481  144.1604  164.9872 C.3     1  UNL1        0.0757
     38 C         143.5339  142.5037  161.0704 C.3     1  UNL1        0.0491
     39 C         144.7580  143.0240  161.7638 C.3     1  UNL1        0.0750
     40 N         144.7803  143.1406  163.2591 N.3     1  UNL1       -0.2702
     41 C         145.5264  142.1303  164.0792 C.3     1  UNL1        0.0897
     42 C         144.0566  144.2676  163.9344 C.3     1  UNL1        0.0897
@<TRIPOS>BOND
     1    34    35    1
     2    35    28    1
     3    28    29   ar
     4    29    30   ar
     5    30    25    1
     6    25    26    1
     7    25    38    1
     8    38    39    1
     9    39    40    1
    10    40    41    1
    11    40    42    1
    12    25     1    1
    13     1     2    1
    14     2     3   ar
    15     3     4   ar
    16     4     5   ar
    17     5     6   ar
    18     6    12    1
    19    12    13    3
    20     6     7   ar
    21     7     8   ar
    22     8     9   ar
    23     9    10   ar
    24    10    11   ar
    25    11    14    1
    26    14    15    1
    27     1    16    1
    28    16    17   ar
    29    17    18   ar
    30    18    19   ar
    31    19    20   ar
    32    20    23    1
    33    23    24    1
    34    20    21   ar
    35    21    22    1
    36    30    31   ar
    37    31    32   ar
    38    32    36    1
    39    36    37    1
    40    32    33   ar
    41    33    28   ar
    42    11     2   ar
    43    21    16   ar
    44     9     4   ar
    45    26    27    1
@<TRIPOS>MOLECULE
*****
 42 45 0 0 0
SMALL
GASTEIGER

@<TRIPOS>ATOM
      1 C         141.4708  142.1162  162.5010 C.3     1  UNL1        0.0799
      2 C         141.9258  142.1306  163.9304 C.ar    1  UNL1        0.0374
      3 C         141.0829  141.4887  164.9922 C.ar    1  UNL1        0.0023
      4 C         141.5378  141.5031  166.4215 C.ar    1  UNL1        0.0183
      5 C         140.6949  140.8612  167.4833 C.ar    1  UNL1        0.0118
      6 C         141.1498  140.8756  168.9126 C.ar    1  UNL1        0.0685
      7 C         142.4476  141.5319  169.2800 C.ar    1  UNL1        0.0118
      8 C         143.2905  142.1738  168.2182 C.ar    1  UNL1        0.0199
      9 C         142.8356  142.1594  166.7889 C.ar    1  UNL1        0.0844
     10 N         143.6785  142.8013  165.7271 N.ar    1  UNL1       -0.2119
     11 C         143.2235  142.7869  164.2978 C.ar    1  UNL1        0.2211
     12 C         140.3070  140.2337  169.9745 C.1     1  UNL1        0.1004
     13 N         139.4641  139.5917  171.0363 N.1     1  UNL1       -0.1908
     14 O         144.0664  143.4288  163.2359 O.3     1  UNL1       -0.4563
     15 C         143.9764  144.9073  162.9988 C.3     1  UNL1        0.2542
     16 C         142.3207  141.4659  161.4500 C.ar    1  UNL1        0.0148
     17 C         142.7340  140.0320  161.6010 C.ar    1  UNL1       -0.0014
     18 C         143.5840  139.3817  160.5499 C.ar    1  UNL1        0.0029
     19 C         144.0206  140.1654  159.3478 C.ar    1  UNL1        0.0392
     20 C         143.6072  141.5994  159.1967 C.ar    1  UNL1        0.1657
     21 C         142.7573  142.2497  160.2478 C.ar    1  UNL1        0.1702
     22 F         142.3440  143.6836  160.0967 F       1  UNL1       -0.2013
     23 O         144.0438  142.3831  157.9946 O.3     1  UNL1       -0.4692
     24 C         145.4733  142.3295  157.5430 C.3     1  UNL1        0.2526
     25 C         140.1660  142.7520  162.1229 C.3     1  UNL1        0.1161
     26 O         140.6772  144.0813  162.5938 O.3     1  UNL1       -0.3820
     27 H         139.9918  144.7555  162.4648 H       1  UNL1        0.2107
     28 C         138.7887  139.8952  159.7371 C.ar    1  UNL1        0.2252
     29 C         139.3000  141.2245  160.2081 C.ar    1  UNL1        0.0557
     30 C         139.6547  141.4228  161.6519 C.ar    1  UNL1        0.0090
     31 C         139.4982  140.2920  162.6248 C.ar    1  UNL1        0.0237
     32 C         138.9870  138.9627  162.1539 C.ar    1  UNL1        0.1096
     33 N         138.6322  138.7644  160.7100 N.ar    1  UNL1       -0.2054
     34 C         138.0269  140.8708  157.4528 C.3     1  UNL1        0.2542
     35 O         138.4340  139.6969  158.2932 O.3     1  UNL1       -0.4561
     36 S         138.8305  137.8318  163.1269 S.3     1  UNL1       -0.0939
     37 C         139.0506  138.0670  164.5919 C.3     1  UNL1        0.0757
     38 C         138.8611  143.3879  161.7447 C.3     1  UNL1        0.0491
     39 C         138.1145  144.2199  162.7449 C.3     1  UNL1        0.0750
     40 N         138.1301  143.8413  164.1962 N.3     1  UNL1       -0.2702
     41 C         138.6751  144.7979  165.2150 C.3     1  UNL1        0.0897
     42 C         137.6008  142.5062  164.6288 C.3     1  UNL1        0.0897
@<TRIPOS>BOND
     1    34    35    1
     2    35    28    1
     3    28    29   ar
     4    29    30   ar
     5    30    25    1
     6    25    26    1
     7    25    38    1
     8    38    39    1
     9    39    40    1
    10    40    41    1
    11    40    42    1
    12    25     1    1
    13     1     2    1
    14     2     3   ar
    15     3     4   ar
    16     4     5   ar
    17     5     6   ar
    18     6    12    1
    19    12    13    3
    20     6     7   ar
    21     7     8   ar
    22     8     9   ar
    23     9    10   ar
    24    10    11   ar
    25    11    14    1
    26    14    15    1
    27     1    16    1
    28    16    17   ar
    29    17    18   ar
    30    18    19   ar
    31    19    20   ar
    32    20    23    1
    33    23    24    1
    34    20    21   ar
    35    21    22    1
    36    30    31   ar
    37    31    32   ar
    38    32    36    1
    39    36    37    1
    40    32    33   ar
    41    33    28   ar
    42    11     2   ar
    43    21    16   ar
    44     9     4   ar
    45    26    27    1
@<TRIPOS>MOLECULE
*****
 42 45 0 0 0
SMALL
GASTEIGER

@<TRIPOS>ATOM
      1 C         141.5539  142.4582  162.4926 C.3     1  UNL1        0.0799
      2 C         141.8628  142.1672  163.9314 C.ar    1  UNL1        0.0374
      3 C         140.7687  141.7306  164.8599 C.ar    1  UNL1        0.0023
      4 C         141.0775  141.4396  166.2986 C.ar    1  UNL1        0.0183
      5 C         139.9834  141.0030  167.2272 C.ar    1  UNL1        0.0118
      6 C         140.2923  140.7120  168.6659 C.ar    1  UNL1        0.0685
      7 C         141.6954  140.8576  169.1761 C.ar    1  UNL1        0.0118
      8 C         142.7895  141.2942  168.2475 C.ar    1  UNL1        0.0199
      9 C         142.4806  141.5852  166.8088 C.ar    1  UNL1        0.0844
     10 N         143.5748  142.0218  165.8803 N.ar    1  UNL1       -0.2119
     11 C         143.2658  142.3128  164.4415 C.ar    1  UNL1        0.2211
     12 C         139.1982  140.2754  169.5945 C.1     1  UNL1        0.1004
     13 N         138.1040  139.8387  170.5230 N.1     1  UNL1       -0.1908
     14 O         144.3600  142.7495  163.5130 O.3     1  UNL1       -0.4563
     15 C         145.5954  141.9118  163.3632 C.3     1  UNL1        0.2542
     16 C         142.4510  141.9323  161.4117 C.ar    1  UNL1        0.0148
     17 C         143.0358  142.8718  160.3992 C.ar    1  UNL1       -0.0014
     18 C         143.9329  142.3459  159.3181 C.ar    1  UNL1        0.0029
     19 C         144.2453  140.8804  159.2497 C.ar    1  UNL1        0.0392
     20 C         143.6604  139.9408  160.2622 C.ar    1  UNL1        0.1657
     21 C         142.7633  140.4667  161.3432 C.ar    1  UNL1        0.1702
     22 F         142.1786  139.5272  162.3557 F       1  UNL1       -0.2013
     23 O         143.9728  138.4753  160.1938 O.3     1  UNL1       -0.4692
     24 C         142.9008  137.4969  159.8145 C.3     1  UNL1        0.2526
     25 C         140.3478  143.2752  162.1349 C.3     1  UNL1        0.1161
     26 O         140.9518  144.4661  162.8182 O.3     1  UNL1       -0.3820
     27 H         140.3467  145.2209  162.7474 H       1  UNL1        0.2107
     28 C         138.6227  139.7442  161.5818 C.ar    1  UNL1        0.2252
     29 C         139.2267  140.9351  162.2651 C.ar    1  UNL1        0.0557
     30 C         139.7438  142.0843  161.4516 C.ar    1  UNL1        0.0090
     31 C         139.6568  142.0426  159.9547 C.ar    1  UNL1        0.0237
     32 C         139.0528  140.8518  159.2714 C.ar    1  UNL1        0.1096
     33 N         138.5357  139.7025  160.0849 N.ar    1  UNL1       -0.2054
     34 C         139.0626  137.7157  163.1444 C.3     1  UNL1        0.2542
     35 O         138.1056  138.5950  162.3954 O.3     1  UNL1       -0.4561
     36 S         138.9659  140.8101  157.7744 S.3     1  UNL1       -0.0939
     37 C         139.8486  139.8788  156.9975 C.3     1  UNL1        0.0757
     38 C         139.1418  144.0922  161.7772 C.3     1  UNL1        0.0491
     39 C         138.4041  144.8469  162.8431 C.3     1  UNL1        0.0750
     40 N         138.2023  144.2303  164.1955 N.3     1  UNL1       -0.2702
     41 C         137.4266  142.9535  164.3295 C.3     1  UNL1        0.0897
     42 C         138.7762  144.8905  165.4140 C.3     1  UNL1        0.0897
@<TRIPOS>BOND
     1    34    35    1
     2    35    28    1
     3    28    29   ar
     4    29    30   ar
     5    30    25    1
     6    25    26    1
     7    25    38    1
     8    38    39    1
     9    39    40    1
    10    40    41    1
    11    40    42    1
    12    25     1    1
    13     1     2    1
    14     2     3   ar
    15     3     4   ar
    16     4     5   ar
    17     5     6   ar
    18     6    12    1
    19    12    13    3
    20     6     7   ar
    21     7     8   ar
    22     8     9   ar
    23     9    10   ar
    24    10    11   ar
    25    11    14    1
    26    14    15    1
    27     1    16    1
    28    16    17   ar
    29    17    18   ar
    30    18    19   ar
    31    19    20   ar
    32    20    23    1
    33    23    24    1
    34    20    21   ar
    35    21    22    1
    36    30    31   ar
    37    31    32   ar
    38    32    36    1
    39    36    37    1
    40    32    33   ar
    41    33    28   ar
    42    11     2   ar
    43    21    16   ar
    44     9     4   ar
    45    26    27    1
@<TRIPOS>MOLECULE
*****
 42 45 0 0 0
SMALL
GASTEIGER

@<TRIPOS>ATOM
      1 C         140.6588  140.7907  162.5390 C.3     1  UNL1        0.0799
      2 C         140.1282  140.4992  163.9114 C.ar    1  UNL1        0.0374
      3 C         140.8102  141.0750  165.1170 C.ar    1  UNL1        0.0023
      4 C         140.2797  140.7835  166.4895 C.ar    1  UNL1        0.0183
      5 C         140.9616  141.3593  167.6950 C.ar    1  UNL1        0.0118
      6 C         140.4310  141.0678  169.0675 C.ar    1  UNL1        0.0685
      7 C         139.2186  140.2005  169.2343 C.ar    1  UNL1        0.0118
      8 C         138.5367  139.6247  168.0288 C.ar    1  UNL1        0.0199
      9 C         139.0672  139.9162  166.6563 C.ar    1  UNL1        0.0844
     10 N         138.3853  139.3404  165.4507 N.ar    1  UNL1       -0.2119
     11 C         138.9159  139.6319  164.0783 C.ar    1  UNL1        0.2211
     12 C         141.1129  141.6436  170.2731 C.1     1  UNL1        0.1004
     13 N         141.7949  142.2194  171.4787 N.1     1  UNL1       -0.1908
     14 O         138.2339  139.0561  162.8727 O.3     1  UNL1       -0.4563
     15 C         138.5101  137.6409  162.4592 C.3     1  UNL1        0.2542
     16 C         141.4824  139.7641  161.8196 C.ar    1  UNL1        0.0148
     17 C         142.6782  139.1569  162.4914 C.ar    1  UNL1       -0.0014
     18 C         143.5019  138.1302  161.7720 C.ar    1  UNL1        0.0029
     19 C         143.1298  137.7107  160.3808 C.ar    1  UNL1        0.0392
     20 C         141.9339  138.3179  159.7090 C.ar    1  UNL1        0.1657
     21 C         141.1103  139.3446  160.4283 C.ar    1  UNL1        0.1702
     22 F         139.9145  139.9517  159.7565 F       1  UNL1       -0.2013
     23 O         141.5618  137.8984  158.3177 O.3     1  UNL1       -0.4692
     24 C         141.9763  138.7373  157.1453 C.3     1  UNL1        0.2526
     25 C         140.3657  142.1089  161.8860 C.3     1  UNL1        0.1161
     26 O         138.8953  141.8252  161.9732 O.3     1  UNL1       -0.3820
     27 H         138.3997  142.5677  161.5939 H       1  UNL1        0.2107
     28 C         144.0871  142.9782  162.9562 C.ar    1  UNL1        0.2252
     29 C         142.6167  142.6944  163.0434 C.ar    1  UNL1        0.0557
     30 C         141.8360  142.3927  161.7987 C.ar    1  UNL1        0.0090
     31 C         142.5256  142.3747  160.4668 C.ar    1  UNL1        0.0237
     32 C         143.9959  142.6585  160.3795 C.ar    1  UNL1        0.1096
     33 N         144.7766  142.9602  161.6242 N.ar    1  UNL1       -0.2054
     34 C         144.1999  143.2046  165.5420 C.3     1  UNL1        0.2542
     35 O         144.8678  143.2799  164.2010 O.3     1  UNL1       -0.4561
     36 S         144.6855  142.6405  159.0475 S.3     1  UNL1       -0.0939
     37 C         143.8786  142.5458  157.7865 C.3     1  UNL1        0.0757
     38 C         140.0725  143.4271  161.2330 C.3     1  UNL1        0.0491
     39 C         139.8379  144.6458  162.0755 C.3     1  UNL1        0.0750
     40 N         139.0759  144.5324  163.3625 N.3     1  UNL1       -0.2702
     41 C         139.8059  144.5721  164.6723 C.3     1  UNL1        0.0897
     42 C         137.5840  144.3793  163.3399 C.3     1  UNL1        0.0897
@<TRIPOS>BOND
     1    34    35    1
     2    35    28    1
     3    28    29   ar
     4    29    30   ar
     5    30    25    1
     6    25    26    1
     7    25    38    1
     8    38    39    1
     9    39    40    1
    10    40    41    1
    11    40    42    1
    12    25     1    1
    13     1     2    1
    14     2     3   ar
    15     3     4   ar
    16     4     5   ar
    17     5     6   ar
    18     6    12    1
    19    12    13    3
    20     6     7   ar
    21     7     8   ar
    22     8     9   ar
    23     9    10   ar
    24    10    11   ar
    25    11    14    1
    26    14    15    1
    27     1    16    1
    28    16    17   ar
    29    17    18   ar
    30    18    19   ar
    31    19    20   ar
    32    20    23    1
    33    23    24    1
    34    20    21   ar
    35    21    22    1
    36    30    31   ar
    37    31    32   ar
    38    32    36    1
    39    36    37    1
    40    32    33   ar
    41    33    28   ar
    42    11     2   ar
    43    21    16   ar
    44     9     4   ar
    45    26    27    1
@<TRIPOS>MOLECULE
*****
 42 45 0 0 0
SMALL
GASTEIGER

@<TRIPOS>ATOM
      1 C         140.3025  142.0628  159.8443 C.3     1  UNL1        0.0799
      2 C         140.4206  140.8891  160.7708 C.ar    1  UNL1        0.0374
      3 C         139.5580  140.8105  161.9954 C.ar    1  UNL1        0.0023
      4 C         139.6760  139.6368  162.9220 C.ar    1  UNL1        0.0183
      5 C         138.8134  139.5583  164.1466 C.ar    1  UNL1        0.0118
      6 C         138.9314  138.3845  165.0731 C.ar    1  UNL1        0.0685
      7 C         139.9121  137.2894  164.7750 C.ar    1  UNL1        0.0118
      8 C         140.7747  137.3679  163.5504 C.ar    1  UNL1        0.0199
      9 C         140.6567  138.5416  162.6239 C.ar    1  UNL1        0.0844
     10 N         141.5193  138.6201  161.3993 N.ar    1  UNL1       -0.2119
     11 C         141.4013  139.7939  160.4727 C.ar    1  UNL1        0.2211
     12 C         138.0688  138.3060  166.2977 C.1     1  UNL1        0.1004
     13 N         137.2062  138.2274  167.5224 N.1     1  UNL1       -0.1908
     14 O         142.2639  139.8724  159.2481 O.3     1  UNL1       -0.4563
     15 C         142.1696  138.8086  158.1948 C.3     1  UNL1        0.2542
     16 C         139.9493  141.8476  158.4025 C.ar    1  UNL1        0.0148
     17 C         140.7895  142.4653  157.3243 C.ar    1  UNL1       -0.0014
     18 C         140.4363  142.2502  155.8824 C.ar    1  UNL1        0.0029
     19 C         139.2429  141.4173  155.5187 C.ar    1  UNL1        0.0392
     20 C         138.4028  140.7996  156.5970 C.ar    1  UNL1        0.1657
     21 C         138.7560  141.0148  158.0388 C.ar    1  UNL1        0.1702
     22 F         137.9158  140.3971  159.1170 F       1  UNL1       -0.2013
     23 O         137.2094  139.9667  156.2334 O.3     1  UNL1       -0.4692
     24 C         136.2339  140.4618  155.2070 C.3     1  UNL1        0.2526
     25 C         140.5377  143.4517  160.3597 C.3     1  UNL1        0.1161
     26 O         139.0873  143.7738  160.1535 O.3     1  UNL1       -0.3820
     27 H         138.9180  144.6900  160.4233 H       1  UNL1        0.2107
     28 C         144.3592  142.7056  159.5922 C.ar    1  UNL1        0.2252
     29 C         142.9088  143.0276  159.3860 C.ar    1  UNL1        0.0557
     30 C         141.9881  143.1297  160.5658 C.ar    1  UNL1        0.0090
     31 C         142.5179  142.9096  161.9517 C.ar    1  UNL1        0.0237
     32 C         143.9684  142.5876  162.1579 C.ar    1  UNL1        0.1096
     33 N         144.8890  142.4855  160.9781 N.ar    1  UNL1       -0.2054
     34 C         144.9539  141.6690  157.2852 C.3     1  UNL1        0.2542
     35 O         145.2799  142.6035  158.4123 O.3     1  UNL1       -0.4561
     36 S         144.4981  142.3675  163.5439 S.3     1  UNL1       -0.0939
     37 C         145.6712  141.4587  163.7629 C.3     1  UNL1        0.0757
     38 C         140.7729  144.8407  160.8750 C.3     1  UNL1        0.0491
     39 C         139.7482  145.4993  161.7504 C.3     1  UNL1        0.0750
     40 N         139.3230  144.8440  163.0309 N.3     1  UNL1       -0.2702
     41 C         137.9175  144.3439  163.1868 C.3     1  UNL1        0.0897
     42 C         140.3033  144.6888  164.1556 C.3     1  UNL1        0.0897
@<TRIPOS>BOND
     1    34    35    1
     2    35    28    1
     3    28    29   ar
     4    29    30   ar
     5    30    25    1
     6    25    26    1
     7    25    38    1
     8    38    39    1
     9    39    40    1
    10    40    41    1
    11    40    42    1
    12    25     1    1
    13     1     2    1
    14     2     3   ar
    15     3     4   ar
    16     4     5   ar
    17     5     6   ar
    18     6    12    1
    19    12    13    3
    20     6     7   ar
    21     7     8   ar
    22     8     9   ar
    23     9    10   ar
    24    10    11   ar
    25    11    14    1
    26    14    15    1
    27     1    16    1
    28    16    17   ar
    29    17    18   ar
    30    18    19   ar
    31    19    20   ar
    32    20    23    1
    33    23    24    1
    34    20    21   ar
    35    21    22    1
    36    30    31   ar
    37    31    32   ar
    38    32    36    1
    39    36    37    1
    40    32    33   ar
    41    33    28   ar
    42    11     2   ar
    43    21    16   ar
    44     9     4   ar
    45    26    27    1
@<TRIPOS>MOLECULE
*****
 42 45 0 0 0
SMALL
GASTEIGER

@<TRIPOS>ATOM
      1 C         141.5548  140.6056  161.3957 C.3     1  UNL1        0.0799
      2 C         141.8914  140.2502  162.8137 C.ar    1  UNL1        0.0374
      3 C         141.6369  141.2366  163.9147 C.ar    1  UNL1        0.0023
      4 C         141.9736  140.8813  165.3326 C.ar    1  UNL1        0.0183
      5 C         141.7191  141.8677  166.4336 C.ar    1  UNL1        0.0118
      6 C         142.0558  141.5124  167.8515 C.ar    1  UNL1        0.0685
      7 C         142.6469  140.1707  168.1684 C.ar    1  UNL1        0.0118
      8 C         142.9014  139.1843  167.0674 C.ar    1  UNL1        0.0199
      9 C         142.5648  139.5396  165.6495 C.ar    1  UNL1        0.0844
     10 N         142.8193  138.5532  164.5485 N.ar    1  UNL1       -0.2119
     11 C         142.4826  138.9086  163.1305 C.ar    1  UNL1        0.2211
     12 C         141.8013  142.4988  168.9526 C.1     1  UNL1        0.1004
     13 N         141.5468  143.4852  170.0536 N.1     1  UNL1       -0.1908
     14 O         142.7371  137.9222  162.0295 O.3     1  UNL1       -0.4563
     15 C         144.1201  137.7615  161.4713 C.3     1  UNL1        0.2542
     16 C         142.6325  141.0751  160.4641 C.ar    1  UNL1        0.0148
     17 C         143.3842  142.3383  160.7628 C.ar    1  UNL1       -0.0014
     18 C         144.4619  142.8079  159.8311 C.ar    1  UNL1        0.0029
     19 C         144.7879  142.0142  158.6007 C.ar    1  UNL1        0.0392
     20 C         144.0362  140.7509  158.3020 C.ar    1  UNL1        0.1657
     21 C         142.9585  140.2814  159.2337 C.ar    1  UNL1        0.1702
     22 F         142.2068  139.0182  158.9350 F       1  UNL1       -0.2013
     23 O         144.3622  139.9573  157.0717 O.3     1  UNL1       -0.4692
     24 C         145.3414  140.4945  156.0703 C.3     1  UNL1        0.2526
     25 C         140.1403  140.4913  160.9096 C.3     1  UNL1        0.1161
     26 O         140.1895  139.0063  161.1153 O.3     1  UNL1       -0.3820
     27 H         139.3378  138.6166  160.8633 H       1  UNL1        0.2107
     28 C         139.9681  144.3804  161.6811 C.ar    1  UNL1        0.2252
     29 C         140.0173  142.8954  161.8869 C.ar    1  UNL1        0.0557
     30 C         140.0911  141.9763  160.7038 C.ar    1  UNL1        0.0090
     31 C         140.1159  142.5423  159.3149 C.ar    1  UNL1        0.0237
     32 C         140.0667  144.0273  159.1091 C.ar    1  UNL1        0.1096
     33 N         139.9928  144.9463  160.2922 N.ar    1  UNL1       -0.2054
     34 C         139.1013  144.9023  164.0741 C.3     1  UNL1        0.2542
     35 O         139.8942  145.2995  162.8643 O.3     1  UNL1       -0.4561
     36 S         140.0914  144.5932  157.7201 S.3     1  UNL1       -0.0939
     37 C         140.3089  146.0628  157.5128 C.3     1  UNL1        0.0757
     38 C         138.7259  140.3771  160.4234 C.3     1  UNL1        0.0491
     39 C         137.6443  139.9297  161.3613 C.3     1  UNL1        0.0750
     40 N         137.7356  140.2570  162.8223 N.3     1  UNL1       -0.2702
     41 C         138.3514  139.2746  163.7740 C.3     1  UNL1        0.0897
     42 C         137.2112  141.5668  163.3316 C.3     1  UNL1        0.0897
@<TRIPOS>BOND
     1    34    35    1
     2    35    28    1
     3    28    29   ar
     4    29    30   ar
     5    30    25    1
     6    25    26    1
     7    25    38    1
     8    38    39    1
     9    39    40    1
    10    40    41    1
    11    40    42    1
    12    25     1    1
    13     1     2    1
    14     2     3   ar
    15     3     4   ar
    16     4     5   ar
    17     5     6   ar
    18     6    12    1
    19    12    13    3
    20     6     7   ar
    21     7     8   ar
    22     8     9   ar
    23     9    10   ar
    24    10    11   ar
    25    11    14    1
    26    14    15    1
    27     1    16    1
    28    16    17   ar
    29    17    18   ar
    30    18    19   ar
    31    19    20   ar
    32    20    23    1
    33    23    24    1
    34    20    21   ar
    35    21    22    1
    36    30    31   ar
    37    31    32   ar
    38    32    36    1
    39    36    37    1
    40    32    33   ar
    41    33    28   ar
    42    11     2   ar
    43    21    16   ar
    44     9     4   ar
    45    26    27    1
