@<TRIPOS>MOLECULE
*****
 29 33 0 0 0
SMALL
GASTEIGER

@<TRIPOS>ATOM
      1 N         142.0515  139.8328  163.0600 N.am    1  UNL1       -0.2606
      2 C         141.5392  141.1453  162.5454 C.3     1  UNL1        0.1169
      3 C         141.3499  142.0610  163.7182 C.3     1  UNL1        0.1212
      4 N         141.7452  141.3145  164.9577 N.am    1  UNL1       -0.2413
      5 C         142.1788  139.9373  164.5509 C.2     1  UNL1        0.3111
      6 O         142.6559  138.8548  165.4731 O.2     1  UNL1       -0.2520
      7 C         141.7127  141.8509  166.3582 C.ar    1  UNL1        0.0586
      8 C         140.4141  142.3010  166.9589 C.ar    1  UNL1        0.0183
      9 C         140.3815  142.8374  168.3594 C.ar    1  UNL1        0.0415
     10 C         141.6476  142.9236  169.1591 C.ar    1  UNL1        0.1765
     11 C         142.9463  142.4734  168.5584 C.ar    1  UNL1        0.1777
     12 C         142.9788  141.9370  167.1580 C.ar    1  UNL1        0.0551
     13 O         144.0249  142.6761  169.5808 O.3     1  UNL1       -0.4346
     14 C         143.3929  143.2516  170.8135 C.3     1  UNL1        0.4294
     15 O         141.9236  143.4045  170.5528 O.3     1  UNL1       -0.4346
     16 C         142.3789  138.6274  162.2295 C.3     1  UNL1        0.1123
     17 C         141.3455  137.5616  162.0144 C.3     1  UNL1        0.0939
     18 C         139.7880  138.3047  160.0723 C.3     1  UNL1        0.0897
     19 N         139.9811  137.9303  161.5119 N.3     1  UNL1       -0.2701
     20 C         138.8099  137.9247  162.4491 C.3     1  UNL1        0.0721
     21 C         138.3887  139.1928  163.1307 C.3     1  UNL1        0.0147
     22 C         137.8418  140.4162  162.4569 C.3     1  UNL1        0.0013
     23 C         137.5555  141.4395  163.5155 C.3     1  UNL1        0.0000
     24 C         137.9255  140.8486  164.8436 C.3     1  UNL1        0.0000
     25 C         138.4724  139.6251  165.5174 C.3     1  UNL1        0.0000
     26 C         138.7587  138.6018  164.4588 C.3     1  UNL1        0.0013
     27 C         138.4404  139.4600  164.6058 C.3     1  UNL1        0.0013
     28 C         138.7317  139.0981  166.0320 C.3     1  UNL1        0.0000
     29 C         139.0005  138.1373  165.0381 C.3     1  UNL1        0.0000
@<TRIPOS>BOND
     1    18    19    1
     2    19    17    1
     3    17    16    1
     4    16     1    1
     5     1     2    1
     6     2     3    1
     7     3     4    1
     8     4     7    1
     9     7     8   ar
    10     8     9   ar
    11     9    10   ar
    12    10    11   ar
    13    11    12   ar
    14    11    13    1
    15    13    14    1
    16    14    15    1
    17     4     5   am
    18     5     6    2
    19    19    20    1
    20    21    20    1
    21    21    22    1
    22    22    23    1
    23    24    23    1
    24    24    25    1
    25    25    26    1
    26    24    27    1
    27    27    28    1
    28    27    29    1
    29     5     1   am
    30    26    21    1
    31    12     7   ar
    32    27    21    1
    33    15    10    1
@<TRIPOS>MOLECULE
*****
 29 33 0 0 0
SMALL
GASTEIGER

@<TRIPOS>ATOM
      1 N         141.9462  139.9987  162.9472 N.am    1  UNL1       -0.2606
      2 C         141.6686  141.3845  162.4447 C.3     1  UNL1        0.1169
      3 C         141.5369  142.2906  163.6329 C.3     1  UNL1        0.1212
      4 N         141.7332  141.4648  164.8696 N.am    1  UNL1       -0.2413
      5 C         141.9862  140.0483  164.4458 C.2     1  UNL1        0.3111
      6 O         142.2354  138.8856  165.3602 O.2     1  UNL1       -0.2520
      7 C         141.6849  141.9672  166.2822 C.ar    1  UNL1        0.0586
      8 C         140.3893  142.4519  166.8620 C.ar    1  UNL1        0.0183
      9 C         140.3410  142.9543  168.2745 C.ar    1  UNL1        0.0415
     10 C         141.5885  142.9721  169.1072 C.ar    1  UNL1        0.1765
     11 C         142.8843  142.4874  168.5274 C.ar    1  UNL1        0.1777
     12 C         142.9325  141.9850  167.1149 C.ar    1  UNL1        0.0551
     13 O         143.9432  142.6233  169.5811 O.3     1  UNL1       -0.4346
     14 C         143.3019  143.1919  170.8121 C.3     1  UNL1        0.4294
     15 O         141.8466  143.4075  170.5192 O.3     1  UNL1       -0.4346
     16 C         142.1485  138.7777  162.0998 C.3     1  UNL1        0.1123
     17 C         141.0594  137.7519  161.9902 C.3     1  UNL1        0.0939
     18 C         139.6806  138.4950  159.9174 C.3     1  UNL1        0.0897
     19 N         139.7446  138.1176  161.3677 N.3     1  UNL1       -0.2701
     20 C         138.4938  138.1058  162.1956 C.3     1  UNL1        0.0721
     21 C         138.5404  138.5381  163.6312 C.3     1  UNL1        0.0147
     22 C         138.8537  137.6603  164.8064 C.3     1  UNL1        0.0013
     23 C         138.7889  138.5037  166.0452 C.3     1  UNL1        0.0000
     24 C         138.4356  139.9027  165.6354 C.3     1  UNL1        0.0000
     25 C         138.1224  140.7805  164.4601 C.3     1  UNL1        0.0000
     26 C         138.1872  139.9371  163.2214 C.3     1  UNL1        0.0013
     27 C         138.2821  139.9239  164.1435 C.3     1  UNL1        0.0013
     28 C         137.9422  141.3768  163.9892 C.3     1  UNL1        0.0000
     29 C         138.0031  140.5849  162.8262 C.3     1  UNL1        0.0000
@<TRIPOS>BOND
     1    18    19    1
     2    19    17    1
     3    17    16    1
     4    16     1    1
     5     1     2    1
     6     2     3    1
     7     3     4    1
     8     4     7    1
     9     7     8   ar
    10     8     9   ar
    11     9    10   ar
    12    10    11   ar
    13    11    12   ar
    14    11    13    1
    15    13    14    1
    16    14    15    1
    17     4     5   am
    18     5     6    2
    19    19    20    1
    20    21    20    1
    21    21    22    1
    22    22    23    1
    23    24    23    1
    24    24    25    1
    25    25    26    1
    26    24    27    1
    27    27    28    1
    28    27    29    1
    29     5     1   am
    30    26    21    1
    31    12     7   ar
    32    27    21    1
    33    15    10    1
@<TRIPOS>MOLECULE
*****
 29 33 0 0 0
SMALL
GASTEIGER

@<TRIPOS>ATOM
      1 N         139.6581  140.5636  162.3349 N.am    1  UNL1       -0.2606
      2 C         138.3788  139.9233  162.7856 C.3     1  UNL1        0.1169
      3 C         138.2952  140.0547  164.2775 C.3     1  UNL1        0.1212
      4 N         139.5230  140.7762  164.7487 N.am    1  UNL1       -0.2413
      5 C         140.3653  141.0907  163.5481 C.2     1  UNL1        0.3111
      6 O         141.6834  141.8067  163.5588 O.2     1  UNL1       -0.2520
      7 C         139.8508  141.1225  166.1710 C.ar    1  UNL1        0.0586
      8 C         140.2310  142.5278  166.5322 C.ar    1  UNL1        0.0183
      9 C         140.5589  142.8741  167.9544 C.ar    1  UNL1        0.0415
     10 C         140.5066  141.8150  169.0153 C.ar    1  UNL1        0.1765
     11 C         140.1264  140.4097  168.6541 C.ar    1  UNL1        0.1777
     12 C         139.7985  140.0634  167.2320 C.ar    1  UNL1        0.0551
     13 O         140.1602  139.5839  169.9059 O.3     1  UNL1       -0.4346
     14 C         140.5612  140.4790  171.0408 C.3     1  UNL1        0.4294
     15 O         140.7753  141.8579  170.4904 O.3     1  UNL1       -0.4346
     16 C         140.1449  140.6598  160.9193 C.3     1  UNL1        0.1123
     17 C         140.7853  139.4720  160.2640 C.3     1  UNL1        0.0939
     18 C         143.3213  139.9096  159.9080 C.3     1  UNL1        0.0897
     19 N         142.2161  139.1329  160.5600 N.3     1  UNL1       -0.2701
     20 C         142.5417  138.0171  161.5082 C.3     1  UNL1        0.0721
     21 C         142.7926  138.3132  162.9571 C.3     1  UNL1        0.0147
     22 C         143.9585  139.0767  163.5119 C.3     1  UNL1        0.0013
     23 C         143.8081  139.1331  165.0032 C.3     1  UNL1        0.0000
     24 C         142.5493  138.4046  165.3701 C.3     1  UNL1        0.0000
     25 C         141.3835  137.6411  164.8153 C.3     1  UNL1        0.0000
     26 C         141.5339  137.5846  163.3239 C.3     1  UNL1        0.0013
     27 C         141.9218  137.8978  164.1055 C.3     1  UNL1        0.0013
     28 C         140.7256  137.2317  164.7183 C.3     1  UNL1        0.0000
     29 C         140.8668  137.1786  163.3181 C.3     1  UNL1        0.0000
@<TRIPOS>BOND
     1    18    19    1
     2    19    17    1
     3    17    16    1
     4    16     1    1
     5     1     2    1
     6     2     3    1
     7     3     4    1
     8     4     7    1
     9     7     8   ar
    10     8     9   ar
    11     9    10   ar
    12    10    11   ar
    13    11    12   ar
    14    11    13    1
    15    13    14    1
    16    14    15    1
    17     4     5   am
    18     5     6    2
    19    19    20    1
    20    21    20    1
    21    21    22    1
    22    22    23    1
    23    24    23    1
    24    24    25    1
    25    25    26    1
    26    24    27    1
    27    27    28    1
    28    27    29    1
    29     5     1   am
    30    26    21    1
    31    12     7   ar
    32    27    21    1
    33    15    10    1
@<TRIPOS>MOLECULE
*****
 29 33 0 0 0
SMALL
GASTEIGER

@<TRIPOS>ATOM
      1 N         141.5463  141.9267  162.1846 N.am    1  UNL1       -0.2606
      2 C         140.7471  140.7034  161.8456 C.3     1  UNL1        0.1169
      3 C         140.4026  140.0050  163.1277 C.3     1  UNL1        0.1212
      4 N         140.9888  140.7967  164.2588 N.am    1  UNL1       -0.2413
      5 C         141.6956  141.9844  163.6760 C.2     1  UNL1        0.3111
      6 O         142.4240  143.0438  164.4488 O.2     1  UNL1       -0.2520
      7 C         140.8862  140.4598  165.7170 C.ar    1  UNL1        0.0586
      8 C         139.5403  140.3677  166.3726 C.ar    1  UNL1        0.0183
      9 C         139.4377  140.0309  167.8306 C.ar    1  UNL1        0.0415
     10 C         140.6811  139.7861  168.6331 C.ar    1  UNL1        0.1765
     11 C         142.0271  139.8782  167.9775 C.ar    1  UNL1        0.1777
     12 C         142.1297  140.2151  166.5195 C.ar    1  UNL1        0.0551
     13 O         143.0695  139.5873  169.0162 O.3     1  UNL1       -0.4346
     14 C         142.3677  139.3154  170.3137 C.3     1  UNL1        0.4294
     15 O         140.8916  139.4383  170.0770 O.3     1  UNL1       -0.4346
     16 C         142.0990  142.9183  161.2041 C.3     1  UNL1        0.1123
     17 C         141.8560  144.3851  161.4032 C.3     1  UNL1        0.0939
     18 C         140.3047  145.3095  159.5354 C.3     1  UNL1        0.0897
     19 N         140.5516  144.9934  160.9807 N.3     1  UNL1       -0.2701
     20 C         139.4941  145.2856  162.0037 C.3     1  UNL1        0.0721
     21 C         138.7586  144.1580  162.6651 C.3     1  UNL1        0.0147
     22 C         137.9706  143.0896  161.9669 C.3     1  UNL1        0.0013
     23 C         137.4069  142.1722  163.0112 C.3     1  UNL1        0.0000
     24 C         137.8466  142.6736  164.3548 C.3     1  UNL1        0.0000
     25 C         138.6346  143.7420  165.0530 C.3     1  UNL1        0.0000
     26 C         139.1983  144.6594  164.0087 C.3     1  UNL1        0.0013
     27 C         138.6820  143.9009  164.1409 C.3     1  UNL1        0.0013
     28 C         138.9873  144.1990  165.5789 C.3     1  UNL1        0.0000
     29 C         139.5165  145.0604  164.5985 C.3     1  UNL1        0.0000
@<TRIPOS>BOND
     1    18    19    1
     2    19    17    1
     3    17    16    1
     4    16     1    1
     5     1     2    1
     6     2     3    1
     7     3     4    1
     8     4     7    1
     9     7     8   ar
    10     8     9   ar
    11     9    10   ar
    12    10    11   ar
    13    11    12   ar
    14    11    13    1
    15    13    14    1
    16    14    15    1
    17     4     5   am
    18     5     6    2
    19    19    20    1
    20    21    20    1
    21    21    22    1
    22    22    23    1
    23    24    23    1
    24    24    25    1
    25    25    26    1
    26    24    27    1
    27    27    28    1
    28    27    29    1
    29     5     1   am
    30    26    21    1
    31    12     7   ar
    32    27    21    1
    33    15    10    1
@<TRIPOS>MOLECULE
*****
 29 33 0 0 0
SMALL
GASTEIGER

@<TRIPOS>ATOM
      1 N         141.4009  140.7818  162.5900 N.am    1  UNL1       -0.2606
      2 C         142.0577  139.5539  163.1476 C.3     1  UNL1        0.1169
      3 C         142.2357  139.7532  164.6236 C.3     1  UNL1        0.1212
      4 N         141.6889  141.1043  164.9782 N.am    1  UNL1       -0.2413
      5 C         141.1730  141.7400  163.7213 C.2     1  UNL1        0.3111
      6 O         140.5403  143.0958  163.6145 O.2     1  UNL1       -0.2520
      7 C         141.6627  141.7129  166.3490 C.ar    1  UNL1        0.0586
      8 C         140.3759  142.2404  166.9109 C.ar    1  UNL1        0.0183
      9 C         140.3496  142.8490  168.2816 C.ar    1  UNL1        0.0415
     10 C         141.6102  142.9300  169.0905 C.ar    1  UNL1        0.1765
     11 C         142.8971  142.4025  168.5286 C.ar    1  UNL1        0.1777
     12 C         142.9234  141.7939  167.1579 C.ar    1  UNL1        0.0551
     13 O         143.9726  142.6181  169.5517 O.3     1  UNL1       -0.4346
     14 C         143.3504  143.2789  170.7460 C.3     1  UNL1        0.4294
     15 O         141.8904  143.4717  170.4609 O.3     1  UNL1       -0.4346
     16 C         141.0362  141.0112  161.1532 C.3     1  UNL1        0.1123
     17 C         142.0231  141.6500  160.2216 C.3     1  UNL1        0.0939
     18 C         141.7010  144.2278  160.2581 C.3     1  UNL1        0.0897
     19 N         142.5541  143.0215  160.5169 N.3     1  UNL1       -0.2701
     20 C         143.9382  143.1865  161.0711 C.3     1  UNL1        0.0721
     21 C         144.1336  143.4487  162.5350 C.3     1  UNL1        0.0147
     22 C         143.6677  144.6624  163.2832 C.3     1  UNL1        0.0013
     23 C         144.0754  144.5071  164.7183 C.3     1  UNL1        0.0000
     24 C         144.7934  143.1974  164.8570 C.3     1  UNL1        0.0000
     25 C         145.2594  141.9837  164.1088 C.3     1  UNL1        0.0000
     26 C         144.8516  142.1391  162.6737 C.3     1  UNL1        0.0013
     27 C         144.8294  142.5433  163.5077 C.3     1  UNL1        0.0013
     28 C         145.5704  141.2991  163.8984 C.3     1  UNL1        0.0000
     29 C         145.1876  141.4449  162.5510 C.3     1  UNL1        0.0000
@<TRIPOS>BOND
     1    18    19    1
     2    19    17    1
     3    17    16    1
     4    16     1    1
     5     1     2    1
     6     2     3    1
     7     3     4    1
     8     4     7    1
     9     7     8   ar
    10     8     9   ar
    11     9    10   ar
    12    10    11   ar
    13    11    12   ar
    14    11    13    1
    15    13    14    1
    16    14    15    1
    17     4     5   am
    18     5     6    2
    19    19    20    1
    20    21    20    1
    21    21    22    1
    22    22    23    1
    23    24    23    1
    24    24    25    1
    25    25    26    1
    26    24    27    1
    27    27    28    1
    28    27    29    1
    29     5     1   am
    30    26    21    1
    31    12     7   ar
    32    27    21    1
    33    15    10    1
@<TRIPOS>MOLECULE
*****
 29 33 0 0 0
SMALL
GASTEIGER

@<TRIPOS>ATOM
      1 N         142.0741  139.4917  163.1623 N.am    1  UNL1       -0.2606
      2 C         142.5650  138.3056  163.9382 C.3     1  UNL1        0.1169
      3 C         142.5890  138.6794  165.3906 C.3     1  UNL1        0.1212
      4 N         142.1129  140.0966  165.5124 N.am    1  UNL1       -0.2413
      5 C         141.7947  140.5987  164.1352 C.2     1  UNL1        0.3111
      6 O         141.2863  141.9674  163.7913 O.2     1  UNL1       -0.2520
      7 C         141.9786  140.8752  166.7875 C.ar    1  UNL1        0.0586
      8 C         143.1313  141.6908  167.2933 C.ar    1  UNL1        0.0183
      9 C         142.9970  142.4693  168.5684 C.ar    1  UNL1        0.0415
     10 C         141.7099  142.4322  169.3377 C.ar    1  UNL1        0.1765
     11 C         140.5570  141.6166  168.8319 C.ar    1  UNL1        0.1777
     12 C         140.6913  140.8381  167.5569 C.ar    1  UNL1        0.0551
     13 O         139.4203  141.7717  169.7982 O.3     1  UNL1       -0.4346
     14 C         139.8705  142.6832  170.9011 C.3     1  UNL1        0.4294
     15 O         141.2856  143.0914  170.6166 O.3     1  UNL1       -0.4346
     16 C         141.8943  139.5591  161.6747 C.3     1  UNL1        0.1123
     17 C         141.2071  138.4393  160.9508 C.3     1  UNL1        0.0939
     18 C         139.2771  138.9436  159.2863 C.3     1  UNL1        0.0897
     19 N         139.7400  138.5284  160.6513 N.3     1  UNL1       -0.2701
     20 C         138.7359  138.2024  161.7169 C.3     1  UNL1        0.0721
     21 C         138.4402  139.1984  162.7988 C.3     1  UNL1        0.0147
     22 C         137.9622  140.6055  162.5951 C.3     1  UNL1        0.0013
     23 C         137.7972  141.2389  163.9447 C.3     1  UNL1        0.0000
     24 C         138.1732  140.2232  164.9825 C.3     1  UNL1        0.0000
     25 C         138.6511  138.8161  165.1862 C.3     1  UNL1        0.0000
     26 C         138.8162  138.1827  163.8365 C.3     1  UNL1        0.0013
     27 C         138.5705  138.9621  164.2743 C.3     1  UNL1        0.0013
     28 C         138.8895  138.1347  165.4841 C.3     1  UNL1        0.0000
     29 C         139.0444  137.5400  164.2170 C.3     1  UNL1        0.0000
@<TRIPOS>BOND
     1    18    19    1
     2    19    17    1
     3    17    16    1
     4    16     1    1
     5     1     2    1
     6     2     3    1
     7     3     4    1
     8     4     7    1
     9     7     8   ar
    10     8     9   ar
    11     9    10   ar
    12    10    11   ar
    13    11    12   ar
    14    11    13    1
    15    13    14    1
    16    14    15    1
    17     4     5   am
    18     5     6    2
    19    19    20    1
    20    21    20    1
    21    21    22    1
    22    22    23    1
    23    24    23    1
    24    24    25    1
    25    25    26    1
    26    24    27    1
    27    27    28    1
    28    27    29    1
    29     5     1   am
    30    26    21    1
    31    12     7   ar
    32    27    21    1
    33    15    10    1
@<TRIPOS>MOLECULE
*****
 29 33 0 0 0
SMALL
GASTEIGER

@<TRIPOS>ATOM
      1 N         140.8498  141.5540  162.4285 N.am    1  UNL1       -0.2606
      2 C         139.3538  141.6439  162.3668 C.3     1  UNL1        0.1169
      3 C         138.8239  141.5193  163.7645 C.3     1  UNL1        0.1212
      4 N         139.9925  141.3524  164.6900 N.am    1  UNL1       -0.2413
      5 C         141.2446  141.3738  163.8643 C.2     1  UNL1        0.3111
      6 O         142.6454  141.2388  164.3833 O.2     1  UNL1       -0.2520
      7 C         139.9215  141.1922  166.1799 C.ar    1  UNL1        0.0586
      8 C         139.2316  140.0002  166.7739 C.ar    1  UNL1        0.0183
      9 C         139.1606  139.8399  168.2636 C.ar    1  UNL1        0.0415
     10 C         139.7796  140.8718  169.1593 C.ar    1  UNL1        0.1765
     11 C         140.4695  142.0639  168.5652 C.ar    1  UNL1        0.1777
     12 C         140.5405  142.2241  167.0755 C.ar    1  UNL1        0.0551
     13 O         140.9836  142.9109  169.6913 O.3     1  UNL1       -0.4346
     14 C         140.6114  142.2423  170.9815 C.3     1  UNL1        0.4294
     15 O         139.8672  140.9821  170.6526 O.3     1  UNL1       -0.4346
     16 C         141.7866  141.6307  161.2595 C.3     1  UNL1        0.1123
     17 C         142.1276  140.3897  160.4888 C.3     1  UNL1        0.0939
     18 C         144.0349  139.1939  161.7857 C.3     1  UNL1        0.0897
     19 N         142.6512  139.1813  161.2067 N.3     1  UNL1       -0.2701
     20 C         141.7912  137.9601  161.3455 C.3     1  UNL1        0.0721
     21 C         140.9177  137.7914  162.5532 C.3     1  UNL1        0.0147
     22 C         141.3878  137.5023  163.9479 C.3     1  UNL1        0.0013
     23 C         140.1813  137.4144  164.8348 C.3     1  UNL1        0.0000
     24 C         138.9655  137.6491  163.9882 C.3     1  UNL1        0.0000
     25 C         138.4954  137.9381  162.5934 C.3     1  UNL1        0.0000
     26 C         139.7019  138.0261  161.7065 C.3     1  UNL1        0.0013
     27 C         139.4206  137.8821  162.5781 C.3     1  UNL1        0.0013
     28 C         138.0717  138.0839  161.9539 C.3     1  UNL1        0.0000
     29 C         139.2044  138.1665  161.1212 C.3     1  UNL1        0.0000
@<TRIPOS>BOND
     1    18    19    1
     2    19    17    1
     3    17    16    1
     4    16     1    1
     5     1     2    1
     6     2     3    1
     7     3     4    1
     8     4     7    1
     9     7     8   ar
    10     8     9   ar
    11     9    10   ar
    12    10    11   ar
    13    11    12   ar
    14    11    13    1
    15    13    14    1
    16    14    15    1
    17     4     5   am
    18     5     6    2
    19    19    20    1
    20    21    20    1
    21    21    22    1
    22    22    23    1
    23    24    23    1
    24    24    25    1
    25    25    26    1
    26    24    27    1
    27    27    28    1
    28    27    29    1
    29     5     1   am
    30    26    21    1
    31    12     7   ar
    32    27    21    1
    33    15    10    1
@<TRIPOS>MOLECULE
*****
 29 33 0 0 0
SMALL
GASTEIGER

@<TRIPOS>ATOM
      1 N         139.4626  141.5338  162.5492 N.am    1  UNL1       -0.2606
      2 C         140.9304  141.5835  162.2443 C.3     1  UNL1        0.1169
      3 C         141.6756  141.5486  163.5457 C.3     1  UNL1        0.1212
      4 N         140.6682  141.4773  164.6548 N.am    1  UNL1       -0.2413
      5 C         139.3005  141.4682  164.0389 C.2     1  UNL1        0.3111
      6 O         137.9992  141.4046  164.7823 O.2     1  UNL1       -0.2520
      7 C         140.9747  141.4243  166.1223 C.ar    1  UNL1        0.0586
      8 C         140.4645  142.5003  167.0343 C.ar    1  UNL1        0.0183
      9 C         140.7709  142.4474  168.5017 C.ar    1  UNL1        0.0415
     10 C         141.5878  141.3185  169.0570 C.ar    1  UNL1        0.1765
     11 C         142.0981  140.2425  168.1450 C.ar    1  UNL1        0.1777
     12 C         141.7916  140.2954  166.6776 C.ar    1  UNL1        0.0551
     13 O         142.8726  139.2610  168.9737 O.3     1  UNL1       -0.4346
     14 C         142.8409  139.7305  170.3980 C.3     1  UNL1        0.4294
     15 O         142.0469  141.0020  170.4495 O.3     1  UNL1       -0.4346
     16 C         138.3519  141.5474  161.5412 C.3     1  UNL1        0.1123
     17 C         137.7703  140.2555  161.0485 C.3     1  UNL1        0.0939
     18 C         139.1643  139.4616  159.0049 C.3     1  UNL1        0.0897
     19 N         138.6556  139.2344  160.3975 N.3     1  UNL1       -0.2701
     20 C         139.0320  137.9862  161.1393 C.3     1  UNL1        0.0721
     21 C         140.2652  137.9640  161.9929 C.3     1  UNL1        0.0147
     22 C         141.6794  138.0565  161.5014 C.3     1  UNL1        0.0013
     23 C         142.5890  137.9952  162.6926 C.3     1  UNL1        0.0000
     24 C         141.7369  137.8649  163.9202 C.3     1  UNL1        0.0000
     25 C         140.3228  137.7725  164.4116 C.3     1  UNL1        0.0000
     26 C         139.4132  137.8337  163.2205 C.3     1  UNL1        0.0013
     27 C         140.3008  137.8456  163.4877 C.3     1  UNL1        0.0013
     28 C         139.6758  137.7135  164.8449 C.3     1  UNL1        0.0000
     29 C         138.8218  137.7710  163.7265 C.3     1  UNL1        0.0000
@<TRIPOS>BOND
     1    18    19    1
     2    19    17    1
     3    17    16    1
     4    16     1    1
     5     1     2    1
     6     2     3    1
     7     3     4    1
     8     4     7    1
     9     7     8   ar
    10     8     9   ar
    11     9    10   ar
    12    10    11   ar
    13    11    12   ar
    14    11    13    1
    15    13    14    1
    16    14    15    1
    17     4     5   am
    18     5     6    2
    19    19    20    1
    20    21    20    1
    21    21    22    1
    22    22    23    1
    23    24    23    1
    24    24    25    1
    25    25    26    1
    26    24    27    1
    27    27    28    1
    28    27    29    1
    29     5     1   am
    30    26    21    1
    31    12     7   ar
    32    27    21    1
    33    15    10    1
@<TRIPOS>MOLECULE
*****
 29 33 0 0 0
SMALL
GASTEIGER

@<TRIPOS>ATOM
      1 N         141.5290  141.0392  162.4666 N.am    1  UNL1       -0.2606
      2 C         142.0107  139.7237  163.0025 C.3     1  UNL1        0.1169
      3 C         142.1333  139.8471  164.4924 C.3     1  UNL1        0.1212
      4 N         141.7273  141.2389  164.8772 N.am    1  UNL1       -0.2413
      5 C         141.3538  141.9757  163.6252 C.2     1  UNL1        0.3111
      6 O         140.8871  143.3990  163.5457 O.2     1  UNL1       -0.2520
      7 C         141.6997  141.7962  166.2697 C.ar    1  UNL1        0.0586
      8 C         140.4093  142.2878  166.8552 C.ar    1  UNL1        0.0183
      9 C         140.3816  142.8450  168.2476 C.ar    1  UNL1        0.0415
     10 C         141.6445  142.9106  169.0544 C.ar    1  UNL1        0.1765
     11 C         142.9350  142.4189  168.4688 C.ar    1  UNL1        0.1777
     12 C         142.9626  141.8617  167.0765 C.ar    1  UNL1        0.0551
     13 O         144.0120  142.6089  169.4954 O.3     1  UNL1       -0.4346
     14 C         143.3872  143.2180  170.7154 C.3     1  UNL1        0.4294
     15 O         141.9239  143.4045  170.4429 O.3     1  UNL1       -0.4346
     16 C         141.2682  141.3617  161.0251 C.3     1  UNL1        0.1123
     17 C         139.9230  141.0785  160.4246 C.3     1  UNL1        0.0939
     18 C         139.8942  138.5851  159.6950 C.3     1  UNL1        0.0897
     19 N         139.3325  139.7031  160.5225 N.3     1  UNL1       -0.2701
     20 C         138.1803  139.4456  161.4478 C.3     1  UNL1        0.0721
     21 C         138.4358  139.0249  162.8648 C.3     1  UNL1        0.0147
     22 C         138.9270  137.6794  163.3100 C.3     1  UNL1        0.0013
     23 C         139.0398  137.6988  164.8056 C.3     1  UNL1        0.0000
     24 C         138.6183  139.0564  165.2847 C.3     1  UNL1        0.0000
     25 C         138.1272  140.4019  164.8394 C.3     1  UNL1        0.0000
     26 C         138.0144  140.3825  163.3438 C.3     1  UNL1        0.0013
     27 C         138.2451  139.8759  164.0852 C.3     1  UNL1        0.0013
     28 C         137.8744  141.1398  164.8029 C.3     1  UNL1        0.0000
     29 C         137.7685  141.1216  163.3987 C.3     1  UNL1        0.0000
@<TRIPOS>BOND
     1    18    19    1
     2    19    17    1
     3    17    16    1
     4    16     1    1
     5     1     2    1
     6     2     3    1
     7     3     4    1
     8     4     7    1
     9     7     8   ar
    10     8     9   ar
    11     9    10   ar
    12    10    11   ar
    13    11    12   ar
    14    11    13    1
    15    13    14    1
    16    14    15    1
    17     4     5   am
    18     5     6    2
    19    19    20    1
    20    21    20    1
    21    21    22    1
    22    22    23    1
    23    24    23    1
    24    24    25    1
    25    25    26    1
    26    24    27    1
    27    27    28    1
    28    27    29    1
    29     5     1   am
    30    26    21    1
    31    12     7   ar
    32    27    21    1
    33    15    10    1
