@<TRIPOS>MOLECULE
*****
 37 41 0 0 0
SMALL
GASTEIGER

@<TRIPOS>ATOM
      1 C         142.6951  137.3461  156.3195 C.ar    1  UNL1        0.0383
      2 C         141.8528  137.5133  155.0897 C.ar    1  UNL1        0.1018
      3 N         141.2803  136.3086  154.4033 N.ar    1  UNL1       -0.2292
      4 C         141.5502  134.9368  154.9468 C.ar    1  UNL1        0.1318
      5 C         142.3925  134.7697  156.1767 C.ar    1  UNL1        0.0306
      6 C         142.9650  135.9743  156.8630 C.ar    1  UNL1        0.0033
      7 C         142.4867  133.3033  156.4782 C.3     1  UNL1        0.1338
      8 C         143.3272  133.7557  157.6353 C.3     1  UNL1        0.0298
      9 C         141.7025  132.5642  155.4348 C.2     1  UNL1        0.2437
     10 O         141.5278  131.0767  155.3523 O.2     1  UNL1       -0.2730
     11 N         141.1237  133.5737  154.4883 N.am    1  UNL1       -0.2682
     12 H         140.5625  133.3764  153.7039 H       1  UNL1        0.1563
     13 N         142.8334  140.1613  160.4714 N.ar    1  UNL1       -0.2967
     14 C         141.8947  139.0028  160.6355 C.ar    1  UNL1        0.1480
     15 N         141.9071  138.2122  159.3608 N.ar    1  UNL1       -0.2236
     16 C         142.8534  138.8821  158.4090 C.ar    1  UNL1        0.1346
     17 C         143.2677  138.5508  157.0059 C.ar    1  UNL1        0.1051
     18 N         144.2544  139.4240  156.2893 N.ar    1  UNL1       -0.2223
     19 C         144.8269  140.6286  156.9757 C.ar    1  UNL1        0.2003
     20 N         144.4126  140.9599  158.3788 N.ar    1  UNL1       -0.2049
     21 C         143.4258  140.0867  159.0954 C.ar    1  UNL1        0.1659
     22 C         141.0858  138.6899  161.8593 C.ar    1  UNL1        0.0725
     23 C         139.7775  139.3858  162.0918 C.ar    1  UNL1        0.1048
     24 N         138.9687  139.0729  163.3156 N.ar    1  UNL1       -0.2290
     25 C         139.4681  138.0640  164.3070 C.ar    1  UNL1        0.1396
     26 C         138.6591  137.7511  165.5308 C.3     1  UNL1        0.0737
     27 N         140.7763  137.3681  164.0745 N.ar    1  UNL1       -0.2290
     28 C         141.5852  137.6810  162.8507 C.ar    1  UNL1        0.1048
     29 C         144.4855  141.2785  162.1364 C.3     1  UNL1        0.0266
     30 C         143.1279  141.2103  161.5024 C.3     1  UNL1        0.1090
     31 N         142.7565  131.9316  157.0217 N.3     1  UNL1       -0.2872
     32 H         142.4166  131.2672  156.3263 H       1  UNL1        0.1240
     33 C         144.1588  131.5223  157.3625 C.3     1  UNL1        0.1020
     34 C         144.6355  130.1374  157.0388 C.3     1  UNL1        0.1484
     35 C         144.3496  129.7097  158.4479 C.3     1  UNL1        0.0368
     36 C         144.9214  130.5651  155.6298 C.3     1  UNL1        0.0368
     37 F         145.1122  128.7525  156.7152 F       1  UNL1       -0.2386
@<TRIPOS>BOND
     1    29    30    1
     2    30    13    1
     3    13    14   ar
     4    14    22    1
     5    22    23   ar
     6    23    24   ar
     7    24    25   ar
     8    25    26    1
     9    25    27   ar
    10    27    28   ar
    11    14    15   ar
    12    15    16   ar
    13    16    17   ar
    14    17     1    1
    15     1     2   ar
    16     2     3   ar
    17     3     4   ar
    18     4     5   ar
    19     5     6   ar
    20     5     7    1
    21     7     8    1
    22     7    31    1
    23    31    33    1
    24    33    34    1
    25    34    35    1
    26    34    36    1
    27    34    37    1
    28     7     9    1
    29     9    10    2
    30     9    11   am
    31    17    18   ar
    32    18    19   ar
    33    19    20   ar
    34    20    21   ar
    35    21    13   ar
    36    28    22   ar
    37    21    16   ar
    38     6     1   ar
    39    11     4    1
    40    31    32    1
    41    11    12    1
@<TRIPOS>MOLECULE
*****
 37 41 0 0 0
SMALL
GASTEIGER

@<TRIPOS>ATOM
      1 C         142.8577  138.9724  159.5516 C.ar    1  UNL1        0.0383
      2 C         144.0786  139.7337  159.9757 C.ar    1  UNL1        0.1018
      3 N         144.3544  139.9571  161.4332 N.ar    1  UNL1       -0.2292
      4 C         143.4093  139.4193  162.4664 C.ar    1  UNL1        0.1318
      5 C         142.1884  138.6580  162.0422 C.ar    1  UNL1        0.0306
      6 C         141.9126  138.4346  160.5848 C.ar    1  UNL1        0.0033
      7 C         141.4436  138.2502  163.2787 C.3     1  UNL1        0.1338
      8 C         140.4855  137.6286  162.3063 C.3     1  UNL1        0.0298
      9 C         142.2042  138.7594  164.4671 C.2     1  UNL1        0.2437
     10 O         141.8178  138.5779  165.9051 O.2     1  UNL1       -0.2730
     11 N         143.4191  139.4820  163.9651 N.am    1  UNL1       -0.2682
     12 H         144.1028  139.9203  164.5215 H       1  UNL1        0.1563
     13 N         142.7147  135.7086  155.7425 N.ar    1  UNL1       -0.2967
     14 C         143.1423  135.0367  157.0136 C.ar    1  UNL1        0.1480
     15 N         143.1610  136.0702  158.1006 N.ar    1  UNL1       -0.2236
     16 C         142.7451  137.3808  157.5011 C.ar    1  UNL1        0.1346
     17 C         142.5819  138.7489  158.0942 C.ar    1  UNL1        0.1051
     18 N         142.1428  139.8935  157.2298 N.ar    1  UNL1       -0.2223
     19 C         141.8670  139.6700  155.7725 C.ar    1  UNL1        0.2003
     20 N         142.0302  138.3019  155.1795 N.ar    1  UNL1       -0.2049
     21 C         142.4693  137.1573  156.0438 C.ar    1  UNL1        0.1659
     22 C         143.4900  133.5859  157.1703 C.ar    1  UNL1        0.0725
     23 C         142.5977  132.5331  156.5826 C.ar    1  UNL1        0.1048
     24 N         142.9455  131.0824  156.7392 N.ar    1  UNL1       -0.2290
     25 C         144.1855  130.6846  157.4836 C.ar    1  UNL1        0.1396
     26 C         144.5332  129.2338  157.6402 C.3     1  UNL1        0.0737
     27 N         145.0777  131.7373  158.0713 N.ar    1  UNL1       -0.2290
     28 C         144.7300  133.1880  157.9146 C.ar    1  UNL1        0.1048
     29 C         141.1912  134.7354  153.8765 C.3     1  UNL1        0.0266
     30 C         142.5599  135.0477  154.4048 C.3     1  UNL1        0.1090
     31 N         140.4986  137.7124  164.3120 N.3     1  UNL1       -0.2872
     32 H         140.8175  138.0646  165.2145 H       1  UNL1        0.1240
     33 C         139.0333  138.0198  164.2205 C.3     1  UNL1        0.1020
     34 C         138.3199  138.6277  165.3916 C.3     1  UNL1        0.1484
     35 C         138.3942  139.9754  164.7373 C.3     1  UNL1        0.0368
     36 C         138.2457  137.2800  166.0460 C.3     1  UNL1        0.0368
     37 F         137.6066  139.2356  166.5628 F       1  UNL1       -0.2386
@<TRIPOS>BOND
     1    29    30    1
     2    30    13    1
     3    13    14   ar
     4    14    22    1
     5    22    23   ar
     6    23    24   ar
     7    24    25   ar
     8    25    26    1
     9    25    27   ar
    10    27    28   ar
    11    14    15   ar
    12    15    16   ar
    13    16    17   ar
    14    17     1    1
    15     1     2   ar
    16     2     3   ar
    17     3     4   ar
    18     4     5   ar
    19     5     6   ar
    20     5     7    1
    21     7     8    1
    22     7    31    1
    23    31    33    1
    24    33    34    1
    25    34    35    1
    26    34    36    1
    27    34    37    1
    28     7     9    1
    29     9    10    2
    30     9    11   am
    31    17    18   ar
    32    18    19   ar
    33    19    20   ar
    34    20    21   ar
    35    21    13   ar
    36    28    22   ar
    37    21    16   ar
    38     6     1   ar
    39    11     4    1
    40    31    32    1
    41    11    12    1
@<TRIPOS>MOLECULE
*****
 37 41 0 0 0
SMALL
GASTEIGER

@<TRIPOS>ATOM
      1 C         140.8260  138.5291  163.2505 C.ar    1  UNL1        0.0383
      2 C         139.5376  137.7660  163.1628 C.ar    1  UNL1        0.1018
      3 N         138.5890  137.7599  164.3248 N.ar    1  UNL1       -0.2292
      4 C         138.9289  138.5168  165.5744 C.ar    1  UNL1        0.1318
      5 C         140.2173  139.2799  165.6620 C.ar    1  UNL1        0.0306
      6 C         141.1659  139.2860  164.5001 C.ar    1  UNL1        0.0033
      7 C         140.2812  139.9280  167.0133 C.3     1  UNL1        0.1338
      8 C         141.6012  140.4488  166.5270 C.3     1  UNL1        0.0298
      9 C         139.0323  139.5654  167.7608 C.2     1  UNL1        0.2437
     10 O         138.6809  139.9990  169.1532 O.2     1  UNL1       -0.2730
     11 N         138.1965  138.6933  166.8715 N.am    1  UNL1       -0.2682
     12 H         137.3210  138.3049  167.0993 H       1  UNL1        0.1563
     13 N         141.5469  139.6196  158.4055 N.ar    1  UNL1       -0.2967
     14 C         140.1508  139.9619  158.8342 C.ar    1  UNL1        0.1480
     15 N         140.0121  139.6097  160.2856 N.ar    1  UNL1       -0.2236
     16 C         141.3226  139.0498  160.7540 C.ar    1  UNL1        0.1346
     17 C         141.7746  138.5352  162.0885 C.ar    1  UNL1        0.1051
     18 N         143.1752  138.0267  162.2610 N.ar    1  UNL1       -0.2223
     19 C         144.1237  138.0329  161.0990 C.ar    1  UNL1        0.2003
     20 N         143.6716  138.5475  159.7645 N.ar    1  UNL1       -0.2049
     21 C         142.2711  139.0560  159.5920 C.ar    1  UNL1        0.1659
     22 C         139.0811  140.5526  157.9641 C.ar    1  UNL1        0.0725
     23 C         138.6293  141.9656  158.1858 C.ar    1  UNL1        0.1048
     24 N         137.5597  142.5562  157.3157 N.ar    1  UNL1       -0.2290
     25 C         136.9419  141.7338  156.2239 C.ar    1  UNL1        0.1396
     26 C         135.8723  142.3245  155.3538 C.3     1  UNL1        0.0737
     27 N         137.3937  140.3208  156.0023 N.ar    1  UNL1       -0.2290
     28 C         138.4633  139.7302  156.8723 C.ar    1  UNL1        0.1048
     29 C         142.7083  141.1302  156.6394 C.3     1  UNL1        0.0266
     30 C         142.1185  139.8080  157.0316 C.3     1  UNL1        0.1090
     31 N         140.6211  140.6849  168.2629 N.3     1  UNL1       -0.2872
     32 H         140.7065  139.9962  169.0104 H       1  UNL1        0.1240
     33 C         141.8568  141.5337  168.3130 C.3     1  UNL1        0.1020
     34 C         141.9505  142.6650  169.2934 C.3     1  UNL1        0.1484
     35 C         143.3822  142.3102  169.5661 C.3     1  UNL1        0.0368
     36 C         140.5188  143.0198  169.0207 C.3     1  UNL1        0.0368
     37 F         142.0441  143.7964  170.2739 F       1  UNL1       -0.2386
@<TRIPOS>BOND
     1    29    30    1
     2    30    13    1
     3    13    14   ar
     4    14    22    1
     5    22    23   ar
     6    23    24   ar
     7    24    25   ar
     8    25    26    1
     9    25    27   ar
    10    27    28   ar
    11    14    15   ar
    12    15    16   ar
    13    16    17   ar
    14    17     1    1
    15     1     2   ar
    16     2     3   ar
    17     3     4   ar
    18     4     5   ar
    19     5     6   ar
    20     5     7    1
    21     7     8    1
    22     7    31    1
    23    31    33    1
    24    33    34    1
    25    34    35    1
    26    34    36    1
    27    34    37    1
    28     7     9    1
    29     9    10    2
    30     9    11   am
    31    17    18   ar
    32    18    19   ar
    33    19    20   ar
    34    20    21   ar
    35    21    13   ar
    36    28    22   ar
    37    21    16   ar
    38     6     1   ar
    39    11     4    1
    40    31    32    1
    41    11    12    1
@<TRIPOS>MOLECULE
*****
 37 41 0 0 0
SMALL
GASTEIGER

@<TRIPOS>ATOM
      1 C         139.0497  142.2696  162.7014 C.ar    1  UNL1        0.0383
      2 C         138.0413  141.1855  162.4605 C.ar    1  UNL1        0.1018
      3 N         137.7082  140.2146  163.5544 N.ar    1  UNL1       -0.2292
      4 C         138.3833  140.3278  164.8890 C.ar    1  UNL1        0.1318
      5 C         139.3917  141.4119  165.1298 C.ar    1  UNL1        0.0306
      6 C         139.7249  142.3828  164.0361 C.ar    1  UNL1        0.0033
      7 C         139.8911  141.2759  166.5377 C.3     1  UNL1        0.1338
      8 C         140.7320  142.4677  166.1875 C.3     1  UNL1        0.0298
      9 C         139.1914  140.1078  167.1670 C.2     1  UNL1        0.2437
     10 O         139.3889  139.6126  168.5691 O.2     1  UNL1       -0.2730
     11 N         138.2596  139.5218  166.1480 N.am    1  UNL1       -0.2682
     12 H         137.6702  138.7447  166.2821 H       1  UNL1        0.1563
     13 N         139.1289  143.1966  157.7702 N.ar    1  UNL1       -0.2967
     14 C         138.5823  141.8289  158.0538 C.ar    1  UNL1        0.1480
     15 N         138.5899  141.6257  159.5400 N.ar    1  UNL1       -0.2236
     16 C         139.1412  142.8680  160.1748 C.ar    1  UNL1        0.1346
     17 C         139.3828  143.2405  161.6076 C.ar    1  UNL1        0.1051
     18 N         139.9576  144.5838  161.9466 N.ar    1  UNL1       -0.2223
     19 C         140.2908  145.5547  160.8528 C.ar    1  UNL1        0.2003
     20 N         140.0491  145.1822  159.4200 N.ar    1  UNL1       -0.2049
     21 C         139.4743  143.8388  159.0810 C.ar    1  UNL1        0.1659
     22 C         138.1109  140.8382  157.0309 C.ar    1  UNL1        0.0725
     23 C         139.0151  139.7242  156.5933 C.ar    1  UNL1        0.1048
     24 N         138.5437  138.7336  155.5703 N.ar    1  UNL1       -0.2290
     25 C         137.1681  138.8570  154.9850 C.ar    1  UNL1        0.1396
     26 C         136.6967  137.8663  153.9620 C.3     1  UNL1        0.0737
     27 N         136.2640  139.9709  155.4226 N.ar    1  UNL1       -0.2290
     28 C         136.7354  140.9615  156.4456 C.ar    1  UNL1        0.1048
     29 C         140.3231  143.2653  155.4638 C.3     1  UNL1        0.0266
     30 C         139.3001  143.8139  156.4139 C.3     1  UNL1        0.1090
     31 N         140.5663  141.3891  167.8724 N.3     1  UNL1       -0.2872
     32 H         141.0515  140.5063  168.0327 H       1  UNL1        0.1240
     33 C         141.5637  142.4822  168.1180 C.3     1  UNL1        0.1020
     34 C         142.0190  142.7819  169.5155 C.3     1  UNL1        0.1484
     35 C         140.6769  143.3758  169.8254 C.3     1  UNL1        0.0368
     36 C         143.3611  142.1880  169.2055 C.3     1  UNL1        0.0368
     37 F         142.4744  143.0815  170.9129 F       1  UNL1       -0.2386
@<TRIPOS>BOND
     1    29    30    1
     2    30    13    1
     3    13    14   ar
     4    14    22    1
     5    22    23   ar
     6    23    24   ar
     7    24    25   ar
     8    25    26    1
     9    25    27   ar
    10    27    28   ar
    11    14    15   ar
    12    15    16   ar
    13    16    17   ar
    14    17     1    1
    15     1     2   ar
    16     2     3   ar
    17     3     4   ar
    18     4     5   ar
    19     5     6   ar
    20     5     7    1
    21     7     8    1
    22     7    31    1
    23    31    33    1
    24    33    34    1
    25    34    35    1
    26    34    36    1
    27    34    37    1
    28     7     9    1
    29     9    10    2
    30     9    11   am
    31    17    18   ar
    32    18    19   ar
    33    19    20   ar
    34    20    21   ar
    35    21    13   ar
    36    28    22   ar
    37    21    16   ar
    38     6     1   ar
    39    11     4    1
    40    31    32    1
    41    11    12    1
@<TRIPOS>MOLECULE
*****
 37 41 0 0 0
SMALL
GASTEIGER

@<TRIPOS>ATOM
      1 C         140.9656  139.1399  163.6683 C.ar    1  UNL1        0.0383
      2 C         142.2155  138.3183  163.5549 C.ar    1  UNL1        0.1018
      3 N         143.0876  138.1096  164.7574 N.ar    1  UNL1       -0.2292
      4 C         142.7098  138.7226  166.0733 C.ar    1  UNL1        0.1318
      5 C         141.4599  139.5442  166.1867 C.ar    1  UNL1        0.0306
      6 C         140.5878  139.7528  164.9842 C.ar    1  UNL1        0.0033
      7 C         141.3450  140.0200  167.6046 C.3     1  UNL1        0.1338
      8 C         140.0872  140.6756  167.1168 C.3     1  UNL1        0.0298
      9 C         142.5239  139.4925  168.3675 C.2     1  UNL1        0.2437
     10 O         142.8093  139.7260  169.8215 O.2     1  UNL1       -0.2730
     11 N         143.3674  138.6907  167.4211 N.am    1  UNL1       -0.2682
     12 H         144.2054  138.2252  167.6452 H       1  UNL1        0.1563
     13 N         140.7009  140.4531  158.8322 N.ar    1  UNL1       -0.2967
     14 C         142.1132  140.5195  159.3333 C.ar    1  UNL1        0.1480
     15 N         142.1119  140.1155  160.7779 N.ar    1  UNL1       -0.2236
     16 C         140.6988  139.7994  161.1695 C.ar    1  UNL1        0.1346
     17 C         140.0935  139.3485  162.4658 C.ar    1  UNL1        0.1051
     18 N         138.6162  139.1063  162.5596 N.ar    1  UNL1       -0.2223
     19 C         137.7442  139.3150  161.3571 C.ar    1  UNL1        0.2003
     20 N         138.3495  139.7659  160.0608 N.ar    1  UNL1       -0.2049
     21 C         139.8268  140.0081  159.9670 C.ar    1  UNL1        0.1659
     22 C         143.3156  140.9197  158.5307 C.ar    1  UNL1        0.0725
     23 C         143.9507  142.2609  158.7491 C.ar    1  UNL1        0.1048
     24 N         145.1530  142.6610  157.9466 N.ar    1  UNL1       -0.2290
     25 C         145.7204  141.7199  156.9256 C.ar    1  UNL1        0.1396
     26 C         146.9228  142.1201  156.1230 C.3     1  UNL1        0.0737
     27 N         145.0853  140.3787  156.7072 N.ar    1  UNL1       -0.2290
     28 C         143.8830  139.9786  157.5097 C.ar    1  UNL1        0.1048
     29 C         140.2784  139.7191  156.3761 C.3     1  UNL1        0.0266
     30 C         140.2431  140.7752  157.4406 C.3     1  UNL1        0.1090
     31 N         140.9672  140.6329  168.9205 N.3     1  UNL1       -0.2872
     32 H         141.6838  140.3553  169.5911 H       1  UNL1        0.1240
     33 C         140.8161  142.1205  169.0391 C.3     1  UNL1        0.1020
     34 C         139.9606  142.7033  170.1247 C.3     1  UNL1        0.1484
     35 C         140.5306  144.0622  169.8444 C.3     1  UNL1        0.0368
     36 C         139.3906  141.3444  170.4049 C.3     1  UNL1        0.0368
     37 F         139.1051  143.2861  171.2102 F       1  UNL1       -0.2386
@<TRIPOS>BOND
     1    29    30    1
     2    30    13    1
     3    13    14   ar
     4    14    22    1
     5    22    23   ar
     6    23    24   ar
     7    24    25   ar
     8    25    26    1
     9    25    27   ar
    10    27    28   ar
    11    14    15   ar
    12    15    16   ar
    13    16    17   ar
    14    17     1    1
    15     1     2   ar
    16     2     3   ar
    17     3     4   ar
    18     4     5   ar
    19     5     6   ar
    20     5     7    1
    21     7     8    1
    22     7    31    1
    23    31    33    1
    24    33    34    1
    25    34    35    1
    26    34    36    1
    27    34    37    1
    28     7     9    1
    29     9    10    2
    30     9    11   am
    31    17    18   ar
    32    18    19   ar
    33    19    20   ar
    34    20    21   ar
    35    21    13   ar
    36    28    22   ar
    37    21    16   ar
    38     6     1   ar
    39    11     4    1
    40    31    32    1
    41    11    12    1
@<TRIPOS>MOLECULE
*****
 37 41 0 0 0
SMALL
GASTEIGER

@<TRIPOS>ATOM
      1 C         139.1307  142.6156  162.7830 C.ar    1  UNL1        0.0383
      2 C         138.1515  141.5899  162.2940 C.ar    1  UNL1        0.1018
      3 N         137.7187  140.4748  163.1992 N.ar    1  UNL1       -0.2292
      4 C         138.2651  140.3854  164.5933 C.ar    1  UNL1        0.1318
      5 C         139.2443  141.4112  165.0822 C.ar    1  UNL1        0.0306
      6 C         139.6771  142.5263  164.1771 C.ar    1  UNL1        0.0033
      7 C         139.6092  141.0668  166.4958 C.3     1  UNL1        0.1338
      8 C         140.4771  142.2868  166.4025 C.3     1  UNL1        0.0298
      9 C         138.8556  139.8283  166.8805 C.2     1  UNL1        0.2437
     10 O         138.9212  139.1329  168.2080 O.2     1  UNL1       -0.2730
     11 N         138.0249  139.4071  165.7047 N.am    1  UNL1       -0.2682
     12 H         137.4270  138.6258  165.6687 H       1  UNL1        0.1563
     13 N         141.6319  143.9522  158.6429 N.ar    1  UNL1       -0.2967
     14 C         141.6976  142.4692  158.8585 C.ar    1  UNL1        0.1480
     15 N         140.9317  142.1479  160.1075 N.ar    1  UNL1       -0.2236
     16 C         140.3926  143.4324  160.6639 C.ar    1  UNL1        0.1346
     17 C         139.5635  143.7307  161.8778 C.ar    1  UNL1        0.1051
     18 N         139.1672  145.1441  162.1866 N.ar    1  UNL1       -0.2223
     19 C         139.6001  146.2591  161.2815 C.ar    1  UNL1        0.2003
     20 N         140.4291  145.9608  160.0676 N.ar    1  UNL1       -0.2049
     21 C         140.8254  144.5475  159.7587 C.ar    1  UNL1        0.1659
     22 C         142.4051  141.4809  157.9793 C.ar    1  UNL1        0.0725
     23 C         143.7593  140.9662  158.3680 C.ar    1  UNL1        0.1048
     24 N         144.4667  139.9780  157.4888 N.ar    1  UNL1       -0.2290
     25 C         143.8199  139.5045  156.2209 C.ar    1  UNL1        0.1396
     26 C         144.5274  138.5163  155.3417 C.3     1  UNL1        0.0737
     27 N         142.4657  140.0193  155.8322 N.ar    1  UNL1       -0.2290
     28 C         141.7583  141.0075  156.7114 C.ar    1  UNL1        0.1048
     29 C         141.5480  145.8759  156.8987 C.3     1  UNL1        0.0266
     30 C         142.2622  144.7073  157.5104 C.3     1  UNL1        0.1090
     31 N         140.1556  140.9775  167.8899 N.3     1  UNL1       -0.2872
     32 H         140.9136  140.2953  167.8659 H       1  UNL1        0.1240
     33 C         140.6977  142.2035  168.5630 C.3     1  UNL1        0.1020
     34 C         141.0293  142.1715  170.0255 C.3     1  UNL1        0.1484
     35 C         139.6012  141.8395  170.3421 C.3     1  UNL1        0.0368
     36 C         142.4574  142.5035  169.7089 C.3     1  UNL1        0.0368
     37 F         141.3610  142.1396  171.4880 F       1  UNL1       -0.2386
@<TRIPOS>BOND
     1    29    30    1
     2    30    13    1
     3    13    14   ar
     4    14    22    1
     5    22    23   ar
     6    23    24   ar
     7    24    25   ar
     8    25    26    1
     9    25    27   ar
    10    27    28   ar
    11    14    15   ar
    12    15    16   ar
    13    16    17   ar
    14    17     1    1
    15     1     2   ar
    16     2     3   ar
    17     3     4   ar
    18     4     5   ar
    19     5     6   ar
    20     5     7    1
    21     7     8    1
    22     7    31    1
    23    31    33    1
    24    33    34    1
    25    34    35    1
    26    34    36    1
    27    34    37    1
    28     7     9    1
    29     9    10    2
    30     9    11   am
    31    17    18   ar
    32    18    19   ar
    33    19    20   ar
    34    20    21   ar
    35    21    13   ar
    36    28    22   ar
    37    21    16   ar
    38     6     1   ar
    39    11     4    1
    40    31    32    1
    41    11    12    1
@<TRIPOS>MOLECULE
*****
 37 41 0 0 0
SMALL
GASTEIGER

@<TRIPOS>ATOM
      1 C         142.5024  143.2873  161.5258 C.ar    1  UNL1        0.0383
      2 C         143.8210  143.6602  162.1360 C.ar    1  UNL1        0.1018
      3 N         144.1472  143.2325  163.5363 N.ar    1  UNL1       -0.2292
      4 C         143.1548  142.4318  164.3263 C.ar    1  UNL1        0.1318
      5 C         141.8362  142.0589  163.7160 C.ar    1  UNL1        0.0306
      6 C         141.5101  142.4867  162.3158 C.ar    1  UNL1        0.0033
      7 C         141.0630  141.2691  164.7301 C.3     1  UNL1        0.1338
      8 C         140.0149  141.2169  163.6583 C.3     1  UNL1        0.0298
      9 C         141.9036  141.1539  165.9671 C.2     1  UNL1        0.2437
     10 O         141.5190  140.4446  167.2316 O.2     1  UNL1       -0.2730
     11 N         143.1964  141.8725  165.7175 N.am    1  UNL1       -0.2682
     12 H         143.9415  141.9614  166.3549 H       1  UNL1        0.1563
     13 N         142.1582  141.9804  156.6931 N.ar    1  UNL1       -0.2967
     14 C         142.6071  140.8228  157.5349 C.ar    1  UNL1        0.1480
     15 N         142.6860  141.2882  158.9587 N.ar    1  UNL1       -0.2236
     16 C         142.2858  142.7334  158.9967 C.ar    1  UNL1        0.1346
     17 C         142.1762  143.7151  160.1256 C.ar    1  UNL1        0.1051
     18 N         141.7405  145.1245  159.8542 N.ar    1  UNL1       -0.2223
     19 C         141.4143  145.5522  158.4540 C.ar    1  UNL1        0.2003
     20 N         141.5239  144.5705  157.3252 N.ar    1  UNL1       -0.2049
     21 C         141.9596  143.1611  157.5965 C.ar    1  UNL1        0.1659
     22 C         142.9219  139.4423  157.0398 C.ar    1  UNL1        0.0725
     23 C         144.0934  139.2209  156.1295 C.ar    1  UNL1        0.1048
     24 N         144.4081  137.8404  155.6345 N.ar    1  UNL1       -0.2290
     25 C         143.5514  136.6813  156.0497 C.ar    1  UNL1        0.1396
     26 C         143.8662  135.3007  155.5546 C.3     1  UNL1        0.0737
     27 N         142.3799  136.9026  156.9600 N.ar    1  UNL1       -0.2290
     28 C         142.0652  138.2831  157.4550 C.ar    1  UNL1        0.1048
     29 C         142.8551  142.7443  154.3096 C.3     1  UNL1        0.0266
     30 C         141.9452  141.9606  155.2084 C.3     1  UNL1        0.1090
     31 N         140.0706  140.4684  165.5201 N.3     1  UNL1       -0.2872
     32 H         139.5663  141.1273  166.1135 H       1  UNL1        0.1240
     33 C         139.0365  139.6453  164.8109 C.3     1  UNL1        0.1020
     34 C         138.6421  138.3046  165.3557 C.3     1  UNL1        0.1484
     35 C         139.1578  137.6467  164.1102 C.3     1  UNL1        0.0368
     36 C         138.1265  138.9624  166.6012 C.3     1  UNL1        0.0368
     37 F         138.2478  136.9638  165.9005 F       1  UNL1       -0.2386
@<TRIPOS>BOND
     1    29    30    1
     2    30    13    1
     3    13    14   ar
     4    14    22    1
     5    22    23   ar
     6    23    24   ar
     7    24    25   ar
     8    25    26    1
     9    25    27   ar
    10    27    28   ar
    11    14    15   ar
    12    15    16   ar
    13    16    17   ar
    14    17     1    1
    15     1     2   ar
    16     2     3   ar
    17     3     4   ar
    18     4     5   ar
    19     5     6   ar
    20     5     7    1
    21     7     8    1
    22     7    31    1
    23    31    33    1
    24    33    34    1
    25    34    35    1
    26    34    36    1
    27    34    37    1
    28     7     9    1
    29     9    10    2
    30     9    11   am
    31    17    18   ar
    32    18    19   ar
    33    19    20   ar
    34    20    21   ar
    35    21    13   ar
    36    28    22   ar
    37    21    16   ar
    38     6     1   ar
    39    11     4    1
    40    31    32    1
    41    11    12    1
@<TRIPOS>MOLECULE
*****
 37 41 0 0 0
SMALL
GASTEIGER

@<TRIPOS>ATOM
      1 C         140.8229  139.1625  162.8137 C.ar    1  UNL1        0.0383
      2 C         139.9437  137.9916  162.4882 C.ar    1  UNL1        0.1018
      3 N         138.9704  137.4782  163.5076 N.ar    1  UNL1       -0.2292
      4 C         138.8763  138.1358  164.8525 C.ar    1  UNL1        0.1318
      5 C         139.7556  139.3067  165.1780 C.ar    1  UNL1        0.0306
      6 C         140.7288  139.8201  164.1586 C.ar    1  UNL1        0.0033
      7 C         139.4412  139.7477  166.5768 C.3     1  UNL1        0.1338
      8 C         140.4950  140.7835  166.3190 C.3     1  UNL1        0.0298
      9 C         138.3677  138.8493  167.1158 C.2     1  UNL1        0.2437
     10 O         137.7514  138.9326  168.4809 O.2     1  UNL1       -0.2730
     11 N         138.0186  137.8531  166.0501 N.am    1  UNL1       -0.2682
     12 H         137.3448  137.1391  166.1238 H       1  UNL1        0.1563
     13 N         141.8405  139.8963  157.9548 N.ar    1  UNL1       -0.2967
     14 C         140.4979  139.2518  158.1341 C.ar    1  UNL1        0.1480
     15 N         140.2657  139.0656  159.6042 N.ar    1  UNL1       -0.2236
     16 C         141.4649  139.5950  160.3336 C.ar    1  UNL1        0.1346
     17 C         141.7963  139.6759  161.7943 C.ar    1  UNL1        0.1051
     18 N         143.1009  140.2702  162.2356 N.ar    1  UNL1       -0.2223
     19 C         144.0741  140.7835  161.2162 C.ar    1  UNL1        0.2003
     20 N         143.7427  140.7026  159.7555 N.ar    1  UNL1       -0.2049
     21 C         142.4381  140.1084  159.3142 C.ar    1  UNL1        0.1659
     22 C         139.5534  138.8620  157.0359 C.ar    1  UNL1        0.0725
     23 C         139.5173  137.4449  156.5455 C.ar    1  UNL1        0.1048
     24 N         138.5727  137.0552  155.4473 N.ar    1  UNL1       -0.2290
     25 C         137.6643  138.0825  154.8397 C.ar    1  UNL1        0.1396
     26 C         136.7197  137.6927  153.7415 C.3     1  UNL1        0.0737
     27 N         137.7004  139.4996  155.3301 N.ar    1  UNL1       -0.2290
     28 C         138.6449  139.8893  156.4282 C.ar    1  UNL1        0.1048
     29 C         142.9153  139.1888  155.6978 C.3     1  UNL1        0.0266
     30 C         142.4743  140.2641  156.6460 C.3     1  UNL1        0.1090
     31 N         139.3471  140.4052  167.9217 N.3     1  UNL1       -0.2872
     32 H         139.1813  139.6630  168.6014 H       1  UNL1        0.1240
     33 C         140.4953  141.2189  168.4407 C.3     1  UNL1        0.1020
     34 C         140.4985  141.6885  169.8653 C.3     1  UNL1        0.1484
     35 C         140.4394  143.1120  169.3963 C.3     1  UNL1        0.0368
     36 C         140.5576  140.2649  170.3343 C.3     1  UNL1        0.0368
     37 F         140.5016  142.1580  171.2899 F       1  UNL1       -0.2386
@<TRIPOS>BOND
     1    29    30    1
     2    30    13    1
     3    13    14   ar
     4    14    22    1
     5    22    23   ar
     6    23    24   ar
     7    24    25   ar
     8    25    26    1
     9    25    27   ar
    10    27    28   ar
    11    14    15   ar
    12    15    16   ar
    13    16    17   ar
    14    17     1    1
    15     1     2   ar
    16     2     3   ar
    17     3     4   ar
    18     4     5   ar
    19     5     6   ar
    20     5     7    1
    21     7     8    1
    22     7    31    1
    23    31    33    1
    24    33    34    1
    25    34    35    1
    26    34    36    1
    27    34    37    1
    28     7     9    1
    29     9    10    2
    30     9    11   am
    31    17    18   ar
    32    18    19   ar
    33    19    20   ar
    34    20    21   ar
    35    21    13   ar
    36    28    22   ar
    37    21    16   ar
    38     6     1   ar
    39    11     4    1
    40    31    32    1
    41    11    12    1
@<TRIPOS>MOLECULE
*****
 37 41 0 0 0
SMALL
GASTEIGER

@<TRIPOS>ATOM
      1 C         139.5955  140.8723  162.4004 C.ar    1  UNL1        0.0383
      2 C         138.8593  139.5735  162.2557 C.ar    1  UNL1        0.1018
      3 N         138.4672  138.7936  163.4757 N.ar    1  UNL1       -0.2292
      4 C         138.8114  139.3127  164.8403 C.ar    1  UNL1        0.1318
      5 C         139.5477  140.6116  164.9849 C.ar    1  UNL1        0.0306
      6 C         139.9397  141.3914  163.7650 C.ar    1  UNL1        0.0033
      7 C         139.7489  140.8698  166.4488 C.3     1  UNL1        0.1338
      8 C         140.4327  142.1176  165.9740 C.3     1  UNL1        0.0298
      9 C         139.1370  139.7305  167.2088 C.2     1  UNL1        0.2437
     10 O         139.1094  139.5800  168.7010 O.2     1  UNL1       -0.2730
     11 N         138.5576  138.7682  166.2147 N.am    1  UNL1       -0.2682
     12 H         138.0925  137.9269  166.4271 H       1  UNL1        0.1563
     13 N         141.2605  140.7373  157.6684 N.ar    1  UNL1       -0.2967
     14 C         141.1256  139.3542  158.2331 C.ar    1  UNL1        0.1480
     15 N         140.6261  139.4756  159.6422 N.ar    1  UNL1       -0.2236
     16 C         140.4523  140.9337  159.9484 C.ar    1  UNL1        0.1346
     17 C         139.9876  141.6521  161.1805 C.ar    1  UNL1        0.1051
     18 N         139.9150  143.1503  161.1926 N.ar    1  UNL1       -0.2223
     19 C         140.3071  143.9300  159.9727 C.ar    1  UNL1        0.2003
     20 N         140.7717  143.2116  158.7406 N.ar    1  UNL1       -0.2049
     21 C         140.8443  141.7135  158.7285 C.ar    1  UNL1        0.1659
     22 C         141.4358  138.0744  157.5147 C.ar    1  UNL1        0.0725
     23 C         140.4696  137.5272  156.5062 C.ar    1  UNL1        0.1048
     24 N         140.7799  136.2475  155.7879 N.ar    1  UNL1       -0.2290
     25 C         142.0563  135.5150  156.0780 C.ar    1  UNL1        0.1396
     26 C         142.3665  134.2352  155.3597 C.3     1  UNL1        0.0737
     27 N         143.0225  136.0622  157.0865 N.ar    1  UNL1       -0.2290
     28 C         142.7122  137.3419  157.8048 C.ar    1  UNL1        0.1048
     29 C         143.1960  141.2206  156.0040 C.3     1  UNL1        0.0266
     30 C         141.7292  141.0835  156.2862 C.3     1  UNL1        0.1090
     31 N         140.0931  141.3888  167.8133 N.3     1  UNL1       -0.2872
     32 H         140.5817  140.6371  168.2997 H       1  UNL1        0.1240
     33 C         140.9394  142.6190  167.9564 C.3     1  UNL1        0.1020
     34 C         141.6455  142.8973  169.2502 C.3     1  UNL1        0.1484
     35 C         142.8356  142.1223  168.7674 C.3     1  UNL1        0.0368
     36 C         140.4554  143.6722  169.7330 C.3     1  UNL1        0.0368
     37 F         142.3516  143.1756  170.5440 F       1  UNL1       -0.2386
@<TRIPOS>BOND
     1    29    30    1
     2    30    13    1
     3    13    14   ar
     4    14    22    1
     5    22    23   ar
     6    23    24   ar
     7    24    25   ar
     8    25    26    1
     9    25    27   ar
    10    27    28   ar
    11    14    15   ar
    12    15    16   ar
    13    16    17   ar
    14    17     1    1
    15     1     2   ar
    16     2     3   ar
    17     3     4   ar
    18     4     5   ar
    19     5     6   ar
    20     5     7    1
    21     7     8    1
    22     7    31    1
    23    31    33    1
    24    33    34    1
    25    34    35    1
    26    34    36    1
    27    34    37    1
    28     7     9    1
    29     9    10    2
    30     9    11   am
    31    17    18   ar
    32    18    19   ar
    33    19    20   ar
    34    20    21   ar
    35    21    13   ar
    36    28    22   ar
    37    21    16   ar
    38     6     1   ar
    39    11     4    1
    40    31    32    1
    41    11    12    1
