@<TRIPOS>MOLECULE
*****
 21 23 0 0 0
SMALL
GASTEIGER

@<TRIPOS>ATOM
      1 C         142.5094  139.3107  165.8934 C.3     1  UNL1        0.0013
      2 C         140.4755  140.0419  169.8404 C.3     1  UNL1        0.0000
      3 C         139.7112  140.2086  168.5606 C.3     1  UNL1        0.0000
      4 C         140.3891  139.9649  167.2449 C.3     1  UNL1        0.0000
      5 C         141.8314  139.5544  167.2091 C.3     1  UNL1        0.0000
      6 C         142.5957  139.3877  168.4889 C.3     1  UNL1        0.0000
      7 C         141.9178  139.6314  169.8045 C.3     1  UNL1        0.0000
      8 C         143.4329  140.3456  165.3225 C.3     1  UNL1        0.0000
      9 C         144.5346  139.9355  164.3907 C.3     1  UNL1        0.0000
     10 C         145.4582  140.9705  163.8198 C.3     1  UNL1        0.0000
     11 C         145.2800  142.4155  164.1807 C.3     1  UNL1        0.0000
     12 C         144.1784  142.8256  165.1124 C.3     1  UNL1        0.0000
     13 C         143.2548  141.7907  165.6833 C.3     1  UNL1        0.0000
     14 C         142.2638  138.0321  165.1486 C.3     1  UNL1        0.0157
     15 C         141.2905  138.0038  164.0076 C.3     1  UNL1        0.0540
     16 C         139.8337  137.7606  164.2703 C.3     1  UNL1        0.0158
     17 C         138.8604  137.7323  163.1293 C.3     1  UNL1        0.0028
     18 C         139.3438  137.9471  161.7256 C.3     1  UNL1        0.0171
     19 C         140.8005  138.1903  161.4630 C.3     1  UNL1        0.0685
     20 N         141.7738  138.2186  162.6040 N.3     1  UNL1       -0.2985
     21 H         142.2240  139.1336  162.5844 H       1  UNL1        0.1232
@<TRIPOS>BOND
     1     2     3    1
     2     3     4    1
     3     4     5    1
     4     5     1    1
     5     1    14    1
     6    14    15    1
     7    15    16    1
     8    16    17    1
     9    17    18    1
    10    18    19    1
    11    19    20    1
    12     1     8    1
    13     8     9    1
    14     9    10    1
    15    10    11    1
    16    11    12    1
    17    12    13    1
    18     5     6    1
    19     6     7    1
    20     7     2    1
    21    20    15    1
    22    13     8    1
    23    20    21    1
@<TRIPOS>MOLECULE
*****
 21 23 0 0 0
SMALL
GASTEIGER

@<TRIPOS>ATOM
      1 C         142.5309  139.3244  165.9875 C.3     1  UNL1        0.0013
      2 C         145.2595  142.4627  164.2683 C.3     1  UNL1        0.0000
      3 C         144.1685  142.8568  165.2192 C.3     1  UNL1        0.0000
      4 C         143.2589  141.8107  165.7922 C.3     1  UNL1        0.0000
      5 C         143.4404  140.3705  165.4144 C.3     1  UNL1        0.0000
      6 C         144.5315  139.9764  164.4635 C.3     1  UNL1        0.0000
      7 C         145.4410  141.0225  163.8905 C.3     1  UNL1        0.0000
      8 C         141.8457  139.5638  167.3002 C.3     1  UNL1        0.0000
      9 C         142.5934  139.3604  168.5845 C.3     1  UNL1        0.0000
     10 C         141.9082  139.5998  169.8973 C.3     1  UNL1        0.0000
     11 C         140.4754  140.0426  169.9256 C.3     1  UNL1        0.0000
     12 C         139.7277  140.2460  168.6413 C.3     1  UNL1        0.0000
     13 C         140.4128  140.0066  167.3286 C.3     1  UNL1        0.0000
     14 C         142.3065  138.0389  165.2479 C.3     1  UNL1        0.0157
     15 C         141.3185  137.9848  164.1205 C.3     1  UNL1        0.0540
     16 C         139.8635  137.7609  164.4086 C.3     1  UNL1        0.0158
     17 C         138.8754  137.7068  163.2813 C.3     1  UNL1        0.0028
     18 C         139.3424  137.8767  161.8659 C.3     1  UNL1        0.0171
     19 C         140.7973  138.1006  161.5779 C.3     1  UNL1        0.0685
     20 N         141.7854  138.1547  162.7052 N.3     1  UNL1       -0.2985
     21 H         142.2420  139.0652  162.6531 H       1  UNL1        0.1232
@<TRIPOS>BOND
     1     2     3    1
     2     3     4    1
     3     4     5    1
     4     5     1    1
     5     1    14    1
     6    14    15    1
     7    15    16    1
     8    16    17    1
     9    17    18    1
    10    18    19    1
    11    19    20    1
    12     1     8    1
    13     8     9    1
    14     9    10    1
    15    10    11    1
    16    11    12    1
    17    12    13    1
    18     5     6    1
    19     6     7    1
    20     7     2    1
    21    20    15    1
    22    13     8    1
    23    20    21    1
@<TRIPOS>MOLECULE
*****
 21 23 0 0 0
SMALL
GASTEIGER

@<TRIPOS>ATOM
      1 C         141.8171  141.7998  165.9643 C.3     1  UNL1        0.0013
      2 C         141.8034  143.1631  170.2528 C.3     1  UNL1        0.0000
      3 C         143.0479  142.5749  169.6567 C.3     1  UNL1        0.0000
      4 C         143.0525  142.1205  168.2272 C.3     1  UNL1        0.0000
      5 C         141.8126  142.2542  167.3938 C.3     1  UNL1        0.0000
      6 C         140.5681  142.8424  167.9898 C.3     1  UNL1        0.0000
      7 C         140.5635  143.2968  169.4193 C.3     1  UNL1        0.0000
      8 C         143.1182  141.5956  165.2463 C.3     1  UNL1        0.0000
      9 C         143.6371  140.2075  165.0145 C.3     1  UNL1        0.0000
     10 C         144.9382  140.0033  164.2965 C.3     1  UNL1        0.0000
     11 C         145.7204  141.1873  163.8104 C.3     1  UNL1        0.0000
     12 C         145.2016  142.5755  164.0423 C.3     1  UNL1        0.0000
     13 C         143.9005  142.7796  164.7602 C.3     1  UNL1        0.0000
     14 C         140.5206  141.5496  165.2527 C.3     1  UNL1        0.0157
     15 C         139.8767  140.1965  165.3207 C.3     1  UNL1        0.0540
     16 C         138.8535  139.9052  166.3782 C.3     1  UNL1        0.0158
     17 C         138.2096  138.5521  166.4462 C.3     1  UNL1        0.0028
     18 C         138.5889  137.4904  165.4568 C.3     1  UNL1        0.0171
     19 C         139.6121  137.7818  164.3994 C.3     1  UNL1        0.0685
     20 N         140.2560  139.1348  164.3313 N.3     1  UNL1       -0.2985
     21 H         140.0547  139.5105  163.4046 H       1  UNL1        0.1232
@<TRIPOS>BOND
     1     2     3    1
     2     3     4    1
     3     4     5    1
     4     5     1    1
     5     1    14    1
     6    14    15    1
     7    15    16    1
     8    16    17    1
     9    17    18    1
    10    18    19    1
    11    19    20    1
    12     1     8    1
    13     8     9    1
    14     9    10    1
    15    10    11    1
    16    11    12    1
    17    12    13    1
    18     5     6    1
    19     6     7    1
    20     7     2    1
    21    20    15    1
    22    13     8    1
    23    20    21    1
@<TRIPOS>MOLECULE
*****
 21 23 0 0 0
SMALL
GASTEIGER

@<TRIPOS>ATOM
      1 C         141.8133  141.7915  165.9287 C.3     1  UNL1        0.0013
      2 C         145.7416  141.1844  163.8191 C.3     1  UNL1        0.0000
      3 C         145.2189  142.5719  164.0465 C.3     1  UNL1        0.0000
      4 C         143.9095  142.7742  164.7497 C.3     1  UNL1        0.0000
      5 C         143.1228  141.5891  165.2255 C.3     1  UNL1        0.0000
      6 C         143.6454  140.2017  164.9982 C.3     1  UNL1        0.0000
      7 C         144.9549  139.9993  164.2950 C.3     1  UNL1        0.0000
      8 C         141.7919  142.2504  167.3566 C.3     1  UNL1        0.0000
      9 C         140.5393  142.8369  167.9371 C.3     1  UNL1        0.0000
     10 C         140.5180  143.2959  169.3651 C.3     1  UNL1        0.0000
     11 C         141.7491  143.1683  170.2124 C.3     1  UNL1        0.0000
     12 C         143.0016  142.5817  169.6318 C.3     1  UNL1        0.0000
     13 C         143.0231  142.1228  168.2040 C.3     1  UNL1        0.0000
     14 C         140.5254  141.5349  165.2040 C.3     1  UNL1        0.0157
     15 C         139.8762  140.1849  165.2833 C.3     1  UNL1        0.0540
     16 C         138.8278  139.9168  166.3221 C.3     1  UNL1        0.0158
     17 C         138.1786  138.5668  166.4014 C.3     1  UNL1        0.0028
     18 C         138.5779  137.4851  165.4420 C.3     1  UNL1        0.0171
     19 C         139.6263  137.7533  164.4033 C.3     1  UNL1        0.0685
     20 N         140.2754  139.1032  164.3240 N.3     1  UNL1       -0.2985
     21 H         140.0968  139.4611  163.3857 H       1  UNL1        0.1232
@<TRIPOS>BOND
     1     2     3    1
     2     3     4    1
     3     4     5    1
     4     5     1    1
     5     1    14    1
     6    14    15    1
     7    15    16    1
     8    16    17    1
     9    17    18    1
    10    18    19    1
    11    19    20    1
    12     1     8    1
    13     8     9    1
    14     9    10    1
    15    10    11    1
    16    11    12    1
    17    12    13    1
    18     5     6    1
    19     6     7    1
    20     7     2    1
    21    20    15    1
    22    13     8    1
    23    20    21    1
@<TRIPOS>MOLECULE
*****
 21 23 0 0 0
SMALL
GASTEIGER

@<TRIPOS>ATOM
      1 C         141.7759  141.6990  166.3366 C.3     1  UNL1        0.0013
      2 C         142.1758  143.2385  170.5461 C.3     1  UNL1        0.0000
      3 C         143.3508  142.6007  169.8659 C.3     1  UNL1        0.0000
      4 C         143.2175  142.0876  168.4628 C.3     1  UNL1        0.0000
      5 C         141.9092  142.2122  167.7397 C.3     1  UNL1        0.0000
      6 C         140.7342  142.8500  168.4199 C.3     1  UNL1        0.0000
      7 C         140.8675  143.3631  169.8230 C.3     1  UNL1        0.0000
      8 C         142.9923  141.5604  165.4700 C.3     1  UNL1        0.0000
      9 C         143.6533  142.7822  164.9040 C.3     1  UNL1        0.0000
     10 C         144.8698  142.6435  164.0374 C.3     1  UNL1        0.0000
     11 C         145.4252  141.2830  163.7367 C.3     1  UNL1        0.0000
     12 C         144.7643  140.0611  164.3026 C.3     1  UNL1        0.0000
     13 C         143.5478  140.1998  165.1692 C.3     1  UNL1        0.0000
     14 C         140.4262  141.3246  165.8000 C.3     1  UNL1        0.0157
     15 C         139.6383  142.3146  164.9943 C.3     1  UNL1        0.0540
     16 C         139.9801  143.7738  165.0569 C.3     1  UNL1        0.0158
     17 C         139.1922  144.7638  164.2512 C.3     1  UNL1        0.0028
     18 C         138.0625  144.2946  163.3830 C.3     1  UNL1        0.0171
     19 C         137.7207  142.8354  163.3205 C.3     1  UNL1        0.0685
     20 N         138.5086  141.8454  164.1262 N.3     1  UNL1       -0.2985
     21 H         138.9034  141.1759  163.4656 H       1  UNL1        0.1232
@<TRIPOS>BOND
     1     2     3    1
     2     3     4    1
     3     4     5    1
     4     5     1    1
     5     1    14    1
     6    14    15    1
     7    15    16    1
     8    16    17    1
     9    17    18    1
    10    18    19    1
    11    19    20    1
    12     1     8    1
    13     8     9    1
    14     9    10    1
    15    10    11    1
    16    11    12    1
    17    12    13    1
    18     5     6    1
    19     6     7    1
    20     7     2    1
    21    20    15    1
    22    13     8    1
    23    20    21    1
@<TRIPOS>MOLECULE
*****
 21 23 0 0 0
SMALL
GASTEIGER

@<TRIPOS>ATOM
      1 C         141.7900  141.7113  166.3390 C.3     1  UNL1        0.0013
      2 C         145.4614  141.3909  163.7566 C.3     1  UNL1        0.0000
      3 C         144.9029  142.7394  164.1022 C.3     1  UNL1        0.0000
      4 C         143.6791  142.8462  164.9630 C.3     1  UNL1        0.0000
      5 C         143.0138  141.6045  165.4782 C.3     1  UNL1        0.0000
      6 C         143.5723  140.2560  165.1326 C.3     1  UNL1        0.0000
      7 C         144.7961  140.1492  164.2718 C.3     1  UNL1        0.0000
      8 C         141.9054  142.2135  167.7477 C.3     1  UNL1        0.0000
      9 C         140.7173  142.8312  168.4234 C.3     1  UNL1        0.0000
     10 C         140.8327  143.3334  169.8322 C.3     1  UNL1        0.0000
     11 C         142.1363  143.2178  170.5652 C.3     1  UNL1        0.0000
     12 C         143.3245  142.6000  169.8894 C.3     1  UNL1        0.0000
     13 C         143.2091  142.0979  168.4807 C.3     1  UNL1        0.0000
     14 C         140.4509  141.3160  165.7911 C.3     1  UNL1        0.0157
     15 C         139.6434  142.3020  164.9999 C.3     1  UNL1        0.0540
     16 C         139.9685  143.7648  165.0692 C.3     1  UNL1        0.0158
     17 C         139.1611  144.7508  164.2780 C.3     1  UNL1        0.0028
     18 C         138.0285  144.2740  163.4177 C.3     1  UNL1        0.0171
     19 C         137.7035  142.8113  163.3485 C.3     1  UNL1        0.0685
     20 N         138.5110  141.8253  164.1396 N.3     1  UNL1       -0.2985
     21 H         138.9071  141.1650  163.4706 H       1  UNL1        0.1232
@<TRIPOS>BOND
     1     2     3    1
     2     3     4    1
     3     4     5    1
     4     5     1    1
     5     1    14    1
     6    14    15    1
     7    15    16    1
     8    16    17    1
     9    17    18    1
    10    18    19    1
    11    19    20    1
    12     1     8    1
    13     8     9    1
    14     9    10    1
    15    10    11    1
    16    11    12    1
    17    12    13    1
    18     5     6    1
    19     6     7    1
    20     7     2    1
    21    20    15    1
    22    13     8    1
    23    20    21    1
@<TRIPOS>MOLECULE
*****
 21 23 0 0 0
SMALL
GASTEIGER

@<TRIPOS>ATOM
      1 C         139.9097  141.7344  166.5061 C.3     1  UNL1        0.0013
      2 C         142.6636  142.9358  169.8561 C.3     1  UNL1        0.0000
      3 C         143.1875  142.1231  168.7094 C.3     1  UNL1        0.0000
      4 C         142.2696  141.7226  167.5928 C.3     1  UNL1        0.0000
      5 C         140.8277  142.1349  167.6228 C.3     1  UNL1        0.0000
      6 C         140.3038  142.9476  168.7694 C.3     1  UNL1        0.0000
      7 C         141.2217  143.3481  169.8861 C.3     1  UNL1        0.0000
      8 C         139.5802  142.7133  165.4184 C.3     1  UNL1        0.0000
      9 C         140.5863  143.7488  165.0113 C.3     1  UNL1        0.0000
     10 C         140.2567  144.7278  163.9235 C.3     1  UNL1        0.0000
     11 C         138.9212  144.6713  163.2430 C.3     1  UNL1        0.0000
     12 C         137.9152  143.6358  163.6501 C.3     1  UNL1        0.0000
     13 C         138.2447  142.6569  164.7378 C.3     1  UNL1        0.0000
     14 C         139.3212  140.3550  166.4771 C.3     1  UNL1        0.0157
     15 C         139.8415  139.3379  165.5050 C.3     1  UNL1        0.0540
     16 C         141.2708  138.8891  165.5822 C.3     1  UNL1        0.0158
     17 C         141.7910  137.8721  164.6102 C.3     1  UNL1        0.0028
     18 C         140.8820  137.3037  163.5609 C.3     1  UNL1        0.0171
     19 C         139.4528  137.7525  163.4838 C.3     1  UNL1        0.0685
     20 N         138.9326  138.7696  164.4558 N.3     1  UNL1       -0.2985
     21 H         138.1515  138.3349  164.9470 H       1  UNL1        0.1232
@<TRIPOS>BOND
     1     2     3    1
     2     3     4    1
     3     4     5    1
     4     5     1    1
     5     1    14    1
     6    14    15    1
     7    15    16    1
     8    16    17    1
     9    17    18    1
    10    18    19    1
    11    19    20    1
    12     1     8    1
    13     8     9    1
    14     9    10    1
    15    10    11    1
    16    11    12    1
    17    12    13    1
    18     5     6    1
    19     6     7    1
    20     7     2    1
    21    20    15    1
    22    13     8    1
    23    20    21    1
@<TRIPOS>MOLECULE
*****
 21 23 0 0 0
SMALL
GASTEIGER

@<TRIPOS>ATOM
      1 C         142.5093  139.6160  166.4148 C.3     1  UNL1        0.0013
      2 C         145.2759  142.2124  163.9952 C.3     1  UNL1        0.0000
      3 C         145.3339  140.7201  163.8550 C.3     1  UNL1        0.0000
      4 C         144.4117  139.8546  164.6616 C.3     1  UNL1        0.0000
      5 C         143.4315  140.4814  165.6083 C.3     1  UNL1        0.0000
      6 C         143.3734  141.9737  165.7484 C.3     1  UNL1        0.0000
      7 C         144.2956  142.8392  164.9418 C.3     1  UNL1        0.0000
      8 C         141.2458  139.0901  165.8008 C.3     1  UNL1        0.0000
      9 C         141.3012  137.9392  164.8404 C.3     1  UNL1        0.0000
     10 C         140.0376  137.4134  164.2263 C.3     1  UNL1        0.0000
     11 C         138.7188  138.0384  164.5727 C.3     1  UNL1        0.0000
     12 C         138.6635  139.1893  165.5331 C.3     1  UNL1        0.0000
     13 C         139.9269  139.7152  166.1471 C.3     1  UNL1        0.0000
     14 C         142.8506  139.2763  167.8354 C.3     1  UNL1        0.0157
     15 C         142.3352  140.1307  168.9554 C.3     1  UNL1        0.0540
     16 C         143.0268  141.4174  169.2965 C.3     1  UNL1        0.0158
     17 C         142.5115  142.2718  170.4165 C.3     1  UNL1        0.0028
     18 C         141.3045  141.8395  171.1954 C.3     1  UNL1        0.0171
     19 C         140.6130  140.5530  170.8542 C.3     1  UNL1        0.0685
     20 N         141.1283  139.6986  169.7342 N.3     1  UNL1       -0.2985
     21 H         140.3655  139.5996  169.0643 H       1  UNL1        0.1232
@<TRIPOS>BOND
     1     2     3    1
     2     3     4    1
     3     4     5    1
     4     5     1    1
     5     1    14    1
     6    14    15    1
     7    15    16    1
     8    16    17    1
     9    17    18    1
    10    18    19    1
    11    19    20    1
    12     1     8    1
    13     8     9    1
    14     9    10    1
    15    10    11    1
    16    11    12    1
    17    12    13    1
    18     5     6    1
    19     6     7    1
    20     7     2    1
    21    20    15    1
    22    13     8    1
    23    20    21    1
@<TRIPOS>MOLECULE
*****
 21 23 0 0 0
SMALL
GASTEIGER

@<TRIPOS>ATOM
      1 C         140.3860  141.6074  166.1812 C.3     1  UNL1        0.0013
      2 C         137.8098  144.0772  163.4401 C.3     1  UNL1        0.0000
      3 C         137.5340  142.6128  163.6112 C.3     1  UNL1        0.0000
      4 C         138.3927  141.7895  164.5248 C.3     1  UNL1        0.0000
      5 C         139.5273  142.4307  165.2675 C.3     1  UNL1        0.0000
      6 C         139.8032  143.8951  165.0964 C.3     1  UNL1        0.0000
      7 C         138.9444  144.7184  164.1828 C.3     1  UNL1        0.0000
      8 C         140.2363  141.7350  167.6682 C.3     1  UNL1        0.0000
      9 C         139.6944  140.5880  168.4686 C.3     1  UNL1        0.0000
     10 C         139.5447  140.7156  169.9557 C.3     1  UNL1        0.0000
     11 C         139.9368  141.9903  170.6423 C.3     1  UNL1        0.0000
     12 C         140.4786  143.1373  169.8419 C.3     1  UNL1        0.0000
     13 C         140.6284  143.0097  168.3548 C.3     1  UNL1        0.0000
     14 C         141.3945  140.6565  165.6078 C.3     1  UNL1        0.0157
     15 C         142.7133  141.1711  165.1119 C.3     1  UNL1        0.0540
     16 C         143.1971  142.5262  165.5360 C.3     1  UNL1        0.0158
     17 C         144.5159  143.0408  165.0401 C.3     1  UNL1        0.0028
     18 C         145.3509  142.2003  164.1201 C.3     1  UNL1        0.0171
     19 C         144.8672  140.8453  163.6961 C.3     1  UNL1        0.0685
     20 N         143.5483  140.3307  164.1920 N.3     1  UNL1       -0.2985
     21 H         143.7389  139.4571  164.6829 H       1  UNL1        0.1232
@<TRIPOS>BOND
     1     2     3    1
     2     3     4    1
     3     4     5    1
     4     5     1    1
     5     1    14    1
     6    14    15    1
     7    15    16    1
     8    16    17    1
     9    17    18    1
    10    18    19    1
    11    19    20    1
    12     1     8    1
    13     8     9    1
    14     9    10    1
    15    10    11    1
    16    11    12    1
    17    12    13    1
    18     5     6    1
    19     6     7    1
    20     7     2    1
    21    20    15    1
    22    13     8    1
    23    20    21    1
