@<TRIPOS>MOLECULE
*****
 47 53 0 0 0
SMALL
GASTEIGER

@<TRIPOS>ATOM
      1 C         140.6173  137.4274  163.9283 C.3     1  UNL1        0.0320
      2 C         141.8688  138.2187  163.6877 C.3     1  UNL1        0.0932
      3 C         142.2100  138.6794  162.3016 C.3     1  UNL1        0.0286
      4 C         143.4614  139.4707  162.0610 C.3     1  UNL1        0.0193
      5 C         144.3716  139.8013  163.2066 C.3     1  UNL1        0.0700
      6 C         144.0304  139.3405  164.5927 C.3     1  UNL1        0.0193
      7 C         142.7790  138.5493  164.8333 C.3     1  UNL1        0.0286
      8 C         143.6970  139.3652  163.3876 C.3     1  UNL1        0.1562
      9 O         142.5655  138.6497  163.6051 O.3     1  UNL1       -0.3572
     10 N         145.6230  140.5925  162.9660 N.3     1  UNL1       -0.2926
     11 H         145.7895  140.5815  161.9597 H       1  UNL1        0.1236
     12 C         145.6995  142.0257  163.4019 C.3     1  UNL1        0.1152
     13 C         144.5118  142.9260  163.2314 C.ar    1  UNL1        0.0765
     14 C         143.9166  143.6161  164.4228 C.ar    1  UNL1        0.0193
     15 C         142.7290  144.5163  164.2522 C.ar    1  UNL1        0.0411
     16 C         142.1366  144.7264  162.8902 C.ar    1  UNL1        0.1708
     17 C         142.7318  144.0363  161.6988 C.ar    1  UNL1        0.1682
     18 N         143.9194  143.1361  161.8694 N.ar    1  UNL1       -0.2304
     19 N         142.1394  144.2464  160.3369 N.am    1  UNL1       -0.2639
     20 C         140.9518  145.1466  160.1663 C.2     1  UNL1        0.2718
     21 O         140.3594  145.3567  158.8044 O.2     1  UNL1       -0.2707
     22 C         140.3565  145.8368  161.3577 C.3     1  UNL1        0.2898
     23 O         140.9489  145.6267  162.7197 O.3     1  UNL1       -0.4628
     24 H         142.5301  143.7934  159.5549 H       1  UNL1        0.1565
     25 C         139.3873  138.1095  164.4497 C.3     1  UNL1        0.0327
     26 C         140.0657  142.3056  165.9269 C.ar    1  UNL1        0.2249
     27 C         139.4792  143.4674  165.1811 C.ar    1  UNL1        0.0593
     28 C         138.6666  143.2304  163.9428 C.ar    1  UNL1        0.0254
     29 C         138.4404  141.8317  163.4504 C.ar    1  UNL1        0.0990
     30 N         137.6278  141.5947  162.2120 N.ar    1  UNL1       -0.2400
     31 C         137.4016  140.1960  161.7196 C.ar    1  UNL1        0.1281
     32 C         137.9882  139.0343  162.4655 C.ar    1  UNL1        0.1566
     33 F         137.7620  137.6356  161.9731 F       1  UNL1       -0.2028
     34 C         138.8008  139.2712  163.7038 C.ar    1  UNL1        0.0261
     35 C         139.0269  140.6699  164.1962 C.ar    1  UNL1        0.1002
     36 N         139.8396  140.9069  165.4345 N.ar    1  UNL1       -0.2104
     37 O         140.8784  142.5426  167.1653 O.3     1  UNL1       -0.4603
     38 N         139.9997  139.5036  167.9664 N.3     1  UNL1       -0.3121
     39 C         139.9544  140.7012  168.8684 C.3     1  UNL1        0.1704
     40 C         139.4972  140.7122  170.2970 C.2     1  UNL1        0.2403
     41 O         139.0051  139.5276  171.0744 O.2     1  UNL1       -0.2735
     42 N         139.6186  142.1160  170.8117 N.am    1  UNL1       -0.2999
     43 C         140.1508  142.9725  169.7011 C.3     1  UNL1        0.1353
     44 C         140.3583  142.0981  168.5002 C.3     1  UNL1        0.2098
     45 H         139.6688  138.6830  168.4740 H       1  UNL1        0.1193
     46 H         140.9588  139.3476  167.6563 H       1  UNL1        0.1193
     47 H         139.3893  142.4215  171.7190 H       1  UNL1        0.1496
@<TRIPOS>BOND
     1    39    38    1
     2    39    40    1
     3    40    41    2
     4    40    42   am
     5    42    43    1
     6    43    44    1
     7    44    37    1
     8    37    26    1
     9    26    27   ar
    10    27    28   ar
    11    28    29   ar
    12    29    30   ar
    13    30    31   ar
    14    31    32   ar
    15    32    33    1
    16    32    34   ar
    17    34    25    1
    18    25     1    1
    19     1     2    1
    20     2     3    1
    21     3     4    1
    22     4     5    1
    23     5    10    1
    24    10    12    1
    25    12    13    1
    26    13    14   ar
    27    14    15   ar
    28    15    16   ar
    29    16    17   ar
    30    17    18   ar
    31    17    19    1
    32    19    20   am
    33    20    21    2
    34    20    22    1
    35    22    23    1
    36     5     6    1
    37     6     7    1
    38     5     8    1
    39     8     9    1
    40    34    35   ar
    41    35    36   ar
    42    44    39    1
    43    36    26   ar
    44    35    29   ar
    45     7     2    1
    46     9     2    1
    47    18    13   ar
    48    23    16    1
    49    38    45    1
    50    38    46    1
    51    42    47    1
    52    10    11    1
    53    19    24    1
@<TRIPOS>MOLECULE
*****
 47 53 0 0 0
SMALL
GASTEIGER

@<TRIPOS>ATOM
      1 C         137.7181  144.2181  163.8779 C.3     1  UNL1        0.0320
      2 C         137.7692  142.8860  163.1903 C.3     1  UNL1        0.0932
      3 C         137.5788  141.6258  163.9813 C.3     1  UNL1        0.0286
      4 C         137.6299  140.2937  163.2937 C.3     1  UNL1        0.0193
      5 C         137.8714  140.2217  161.8150 C.3     1  UNL1        0.0700
      6 C         138.0619  141.4819  161.0240 C.3     1  UNL1        0.0193
      7 C         138.0108  142.8140  161.7116 C.3     1  UNL1        0.0286
      8 C         137.8518  140.9747  162.1476 C.3     1  UNL1        0.1562
      9 O         137.8056  142.1792  162.7694 O.3     1  UNL1       -0.3572
     10 N         137.9225  138.8896  161.1274 N.3     1  UNL1       -0.2926
     11 H         137.3835  138.9818  160.2664 H       1  UNL1        0.1236
     12 C         139.2448  138.2915  160.7484 C.3     1  UNL1        0.1152
     13 C         140.4085  138.3865  161.6902 C.ar    1  UNL1        0.0765
     14 C         140.4891  137.4731  162.8773 C.ar    1  UNL1        0.0193
     15 C         141.6527  137.5682  163.8190 C.ar    1  UNL1        0.0411
     16 C         142.7358  138.5765  163.5737 C.ar    1  UNL1        0.1708
     17 C         142.6552  139.4899  162.3866 C.ar    1  UNL1        0.1682
     18 N         141.4915  139.3948  161.4448 N.ar    1  UNL1       -0.2304
     19 N         143.7382  140.4983  162.1412 N.am    1  UNL1       -0.2639
     20 C         144.9018  140.5933  163.0829 C.2     1  UNL1        0.2718
     21 O         145.9849  141.6017  162.8375 O.2     1  UNL1       -0.2707
     22 C         144.9825  139.6799  164.2701 C.3     1  UNL1        0.2898
     23 O         143.8994  138.6715  164.5155 O.3     1  UNL1       -0.4628
     24 H         143.6853  141.0977  161.3620 H       1  UNL1        0.1565
     25 C         138.8527  144.6518  164.7580 C.3     1  UNL1        0.0327
     26 C         141.6894  142.1898  167.2363 C.ar    1  UNL1        0.2249
     27 C         143.1062  141.9958  166.7837 C.ar    1  UNL1        0.0593
     28 C         143.5775  142.6225  165.5050 C.ar    1  UNL1        0.0254
     29 C         142.6319  143.4431  164.6789 C.ar    1  UNL1        0.0990
     30 N         143.1033  144.0698  163.4001 N.ar    1  UNL1       -0.2400
     31 C         142.1577  144.8905  162.5740 C.ar    1  UNL1        0.1281
     32 C         140.7408  145.0845  163.0267 C.ar    1  UNL1        0.1566
     33 F         139.7953  145.9051  162.2006 F       1  UNL1       -0.2028
     34 C         140.2696  144.4578  164.3054 C.ar    1  UNL1        0.0261
     35 C         141.2151  143.6371  165.1315 C.ar    1  UNL1        0.1002
     36 N         140.7438  143.0105  166.4102 N.ar    1  UNL1       -0.2104
     37 O         141.2180  141.5632  168.5151 O.3     1  UNL1       -0.4603
     38 N         140.0350  139.9110  165.9616 N.3     1  UNL1       -0.3121
     39 C         139.4534  139.9323  167.3441 C.3     1  UNL1        0.1704
     40 C         138.2259  139.1978  167.7956 C.2     1  UNL1        0.2403
     41 O         137.3646  138.3131  166.9439 O.2     1  UNL1       -0.2735
     42 N         138.0111  139.5033  169.2484 N.am    1  UNL1       -0.2999
     43 C         139.1058  140.4265  169.6947 C.3     1  UNL1        0.1353
     44 C         139.9972  140.6917  168.5178 C.3     1  UNL1        0.2098
     45 H         139.4650  139.3143  165.3621 H       1  UNL1        0.1193
     46 H         140.9867  139.5459  165.9986 H       1  UNL1        0.1193
     47 H         137.2800  139.1583  169.8103 H       1  UNL1        0.1496
@<TRIPOS>BOND
     1    39    38    1
     2    39    40    1
     3    40    41    2
     4    40    42   am
     5    42    43    1
     6    43    44    1
     7    44    37    1
     8    37    26    1
     9    26    27   ar
    10    27    28   ar
    11    28    29   ar
    12    29    30   ar
    13    30    31   ar
    14    31    32   ar
    15    32    33    1
    16    32    34   ar
    17    34    25    1
    18    25     1    1
    19     1     2    1
    20     2     3    1
    21     3     4    1
    22     4     5    1
    23     5    10    1
    24    10    12    1
    25    12    13    1
    26    13    14   ar
    27    14    15   ar
    28    15    16   ar
    29    16    17   ar
    30    17    18   ar
    31    17    19    1
    32    19    20   am
    33    20    21    2
    34    20    22    1
    35    22    23    1
    36     5     6    1
    37     6     7    1
    38     5     8    1
    39     8     9    1
    40    34    35   ar
    41    35    36   ar
    42    44    39    1
    43    36    26   ar
    44    35    29   ar
    45     7     2    1
    46     9     2    1
    47    18    13   ar
    48    23    16    1
    49    38    45    1
    50    38    46    1
    51    42    47    1
    52    10    11    1
    53    19    24    1
@<TRIPOS>MOLECULE
*****
 47 53 0 0 0
SMALL
GASTEIGER

@<TRIPOS>ATOM
      1 C         137.9029  141.4946  164.6978 C.3     1  UNL1        0.0320
      2 C         139.0158  142.3945  164.2487 C.3     1  UNL1        0.0932
      3 C         139.2207  142.6617  162.7870 C.3     1  UNL1        0.0286
      4 C         140.3337  143.5616  162.3379 C.3     1  UNL1        0.0193
      5 C         141.2416  144.1942  163.3505 C.3     1  UNL1        0.0700
      6 C         141.0366  143.9269  164.8123 C.3     1  UNL1        0.0193
      7 C         139.9238  143.0271  165.2613 C.3     1  UNL1        0.0286
      8 C         140.6455  143.7083  163.6447 C.3     1  UNL1        0.1562
      9 O         139.6392  142.8946  164.0507 O.3     1  UNL1       -0.3572
     10 N         142.3545  145.0941  162.9015 N.3     1  UNL1       -0.2926
     11 H         142.4660  145.8068  163.6226 H       1  UNL1        0.1236
     12 C         143.7180  144.5268  162.6388 C.3     1  UNL1        0.1152
     13 C         143.9157  143.0406  162.5918 C.ar    1  UNL1        0.0765
     14 C         144.5350  142.3291  163.7581 C.ar    1  UNL1        0.0193
     15 C         144.7327  140.8429  163.7110 C.ar    1  UNL1        0.0411
     16 C         144.3111  140.0683  162.4977 C.ar    1  UNL1        0.1708
     17 C         143.6919  140.7798  161.3314 C.ar    1  UNL1        0.1682
     18 N         143.4942  142.2659  161.3785 N.ar    1  UNL1       -0.2304
     19 N         143.2703  140.0052  160.1180 N.am    1  UNL1       -0.2639
     20 C         143.4680  138.5190  160.0709 C.2     1  UNL1        0.2718
     21 O         143.0464  137.7444  158.8576 O.2     1  UNL1       -0.2707
     22 C         144.0873  137.8074  161.2373 C.3     1  UNL1        0.2898
     23 O         144.5088  138.5821  162.4506 O.3     1  UNL1       -0.4628
     24 H         142.8639  140.4722  159.3525 H       1  UNL1        0.1565
     25 C         138.2171  140.1672  165.3217 C.3     1  UNL1        0.0327
     26 C         142.0885  139.6662  167.5604 C.ar    1  UNL1        0.2249
     27 C         143.1791  138.8088  166.9901 C.ar    1  UNL1        0.0593
     28 C         142.9793  138.1184  165.6735 C.ar    1  UNL1        0.0254
     29 C         141.6888  138.2854  164.9273 C.ar    1  UNL1        0.0990
     30 N         141.4890  137.5949  163.6107 N.ar    1  UNL1       -0.2400
     31 C         140.1986  137.7619  162.8644 C.ar    1  UNL1        0.1281
     32 C         139.1079  138.6194  163.4348 C.ar    1  UNL1        0.1566
     33 F         137.8175  138.7863  162.6886 F       1  UNL1       -0.2028
     34 C         139.3077  139.3098  164.7514 C.ar    1  UNL1        0.0261
     35 C         140.5982  139.1428  165.4976 C.ar    1  UNL1        0.1002
     36 N         140.7980  139.8332  166.8142 N.ar    1  UNL1       -0.2104
     37 O         142.2882  140.3567  168.8770 O.3     1  UNL1       -0.4603
     38 N         140.5422  140.5904  171.6241 N.3     1  UNL1       -0.3121
     39 C         140.6004  141.6115  170.5268 C.3     1  UNL1        0.1704
     40 C         139.8663  142.9193  170.4996 C.2     1  UNL1        0.2403
     41 O         138.9451  143.4356  171.5648 O.2     1  UNL1       -0.2735
     42 N         140.2152  143.6201  169.2200 N.am    1  UNL1       -0.2999
     43 C         141.1649  142.7454  168.4565 C.3     1  UNL1        0.1353
     44 C         141.4030  141.5040  169.2641 C.3     1  UNL1        0.2098
     45 H         139.9201  140.9197  172.3623 H       1  UNL1        0.1193
     46 H         141.4773  140.4479  172.0058 H       1  UNL1        0.1193
     47 H         139.8797  144.4997  168.9319 H       1  UNL1        0.1496
@<TRIPOS>BOND
     1    39    38    1
     2    39    40    1
     3    40    41    2
     4    40    42   am
     5    42    43    1
     6    43    44    1
     7    44    37    1
     8    37    26    1
     9    26    27   ar
    10    27    28   ar
    11    28    29   ar
    12    29    30   ar
    13    30    31   ar
    14    31    32   ar
    15    32    33    1
    16    32    34   ar
    17    34    25    1
    18    25     1    1
    19     1     2    1
    20     2     3    1
    21     3     4    1
    22     4     5    1
    23     5    10    1
    24    10    12    1
    25    12    13    1
    26    13    14   ar
    27    14    15   ar
    28    15    16   ar
    29    16    17   ar
    30    17    18   ar
    31    17    19    1
    32    19    20   am
    33    20    21    2
    34    20    22    1
    35    22    23    1
    36     5     6    1
    37     6     7    1
    38     5     8    1
    39     8     9    1
    40    34    35   ar
    41    35    36   ar
    42    44    39    1
    43    36    26   ar
    44    35    29   ar
    45     7     2    1
    46     9     2    1
    47    18    13   ar
    48    23    16    1
    49    38    45    1
    50    38    46    1
    51    42    47    1
    52    10    11    1
    53    19    24    1
@<TRIPOS>MOLECULE
*****
 47 53 0 0 0
SMALL
GASTEIGER

@<TRIPOS>ATOM
      1 C         137.9240  143.9773  164.5821 C.3     1  UNL1        0.0320
      2 C         137.9122  142.6291  163.9245 C.3     1  UNL1        0.0932
      3 C         137.7176  142.5198  162.4412 C.3     1  UNL1        0.0286
      4 C         137.7058  141.1716  161.7837 C.3     1  UNL1        0.0193
      5 C         137.8887  139.9328  162.6094 C.3     1  UNL1        0.0700
      6 C         138.0833  140.0421  164.0928 C.3     1  UNL1        0.0193
      7 C         138.0950  141.3903  164.7503 C.3     1  UNL1        0.0286
      8 C         137.9024  140.6495  163.0146 C.3     1  UNL1        0.1562
      9 O         137.9131  141.8685  163.6091 O.3     1  UNL1       -0.3572
     10 N         137.8769  138.5846  161.9519 N.3     1  UNL1       -0.2926
     11 H         137.1504  138.6123  161.2365 H       1  UNL1        0.1236
     12 C         139.1173  138.0625  161.2895 C.3     1  UNL1        0.1152
     13 C         140.4651  138.3734  161.8699 C.ar    1  UNL1        0.0765
     14 C         141.5144  139.0276  161.0209 C.ar    1  UNL1        0.0193
     15 C         142.8622  139.3385  161.6013 C.ar    1  UNL1        0.0411
     16 C         143.1606  138.9951  163.0306 C.ar    1  UNL1        0.1708
     17 C         142.1113  138.3408  163.8796 C.ar    1  UNL1        0.1682
     18 N         140.7635  138.0300  163.2992 N.ar    1  UNL1       -0.2304
     19 N         142.4097  137.9975  165.3089 N.am    1  UNL1       -0.2639
     20 C         143.7575  138.3083  165.8893 C.2     1  UNL1        0.2718
     21 O         144.0559  137.9649  167.3186 O.2     1  UNL1       -0.2707
     22 C         144.8069  138.9626  165.0403 C.3     1  UNL1        0.2898
     23 O         144.5085  139.3060  163.6110 O.3     1  UNL1       -0.4628
     24 H         141.7210  137.5680  165.8661 H       1  UNL1        0.1565
     25 C         139.2282  144.6599  164.8701 C.3     1  UNL1        0.0327
     26 C         143.0764  142.5551  165.8761 C.ar    1  UNL1        0.2249
     27 C         144.1880  142.5034  164.8704 C.ar    1  UNL1        0.0593
     28 C         144.0170  143.1533  163.5294 C.ar    1  UNL1        0.0254
     29 C         142.7343  143.8549  163.1941 C.ar    1  UNL1        0.0990
     30 N         142.5633  144.5048  161.8530 N.ar    1  UNL1       -0.2400
     31 C         141.2806  145.2064  161.5177 C.ar    1  UNL1        0.1281
     32 C         140.1689  145.2581  162.5234 C.ar    1  UNL1        0.1566
     33 F         138.8862  145.9597  162.1881 F       1  UNL1       -0.2028
     34 C         140.3399  144.6082  163.8644 C.ar    1  UNL1        0.0261
     35 C         141.6226  143.9066  164.1998 C.ar    1  UNL1        0.1002
     36 N         141.7936  143.2567  165.5408 N.ar    1  UNL1       -0.2104
     37 O         143.2473  141.9052  167.2172 O.3     1  UNL1       -0.4603
     38 N         140.7593  139.7948  167.1457 N.3     1  UNL1       -0.3121
     39 C         140.9558  140.8925  168.1489 C.3     1  UNL1        0.1704
     40 C         140.0431  141.2128  169.2954 C.2     1  UNL1        0.2403
     41 O         138.7738  140.4917  169.6400 O.2     1  UNL1       -0.2735
     42 N         140.6228  142.3809  170.0368 N.am    1  UNL1       -0.2999
     43 C         141.8936  142.7824  169.3485 C.3     1  UNL1        0.1353
     44 C         142.0994  141.8625  168.1818 C.3     1  UNL1        0.2098
     45 H         139.9000  139.2885  167.3596 H       1  UNL1        0.1193
     46 H         141.5508  139.1527  167.1848 H       1  UNL1        0.1193
     47 H         140.2368  142.8089  170.8350 H       1  UNL1        0.1496
@<TRIPOS>BOND
     1    39    38    1
     2    39    40    1
     3    40    41    2
     4    40    42   am
     5    42    43    1
     6    43    44    1
     7    44    37    1
     8    37    26    1
     9    26    27   ar
    10    27    28   ar
    11    28    29   ar
    12    29    30   ar
    13    30    31   ar
    14    31    32   ar
    15    32    33    1
    16    32    34   ar
    17    34    25    1
    18    25     1    1
    19     1     2    1
    20     2     3    1
    21     3     4    1
    22     4     5    1
    23     5    10    1
    24    10    12    1
    25    12    13    1
    26    13    14   ar
    27    14    15   ar
    28    15    16   ar
    29    16    17   ar
    30    17    18   ar
    31    17    19    1
    32    19    20   am
    33    20    21    2
    34    20    22    1
    35    22    23    1
    36     5     6    1
    37     6     7    1
    38     5     8    1
    39     8     9    1
    40    34    35   ar
    41    35    36   ar
    42    44    39    1
    43    36    26   ar
    44    35    29   ar
    45     7     2    1
    46     9     2    1
    47    18    13   ar
    48    23    16    1
    49    38    45    1
    50    38    46    1
    51    42    47    1
    52    10    11    1
    53    19    24    1
@<TRIPOS>MOLECULE
*****
 47 53 0 0 0
SMALL
GASTEIGER

@<TRIPOS>ATOM
      1 C         138.4810  139.0858  164.8745 C.3     1  UNL1        0.0320
      2 C         138.2953  140.4428  164.2628 C.3     1  UNL1        0.0932
      3 C         138.3848  141.6705  165.1199 C.3     1  UNL1        0.0286
      4 C         138.1991  143.0275  164.5082 C.3     1  UNL1        0.0193
      5 C         137.9240  143.1567  163.0393 C.3     1  UNL1        0.0700
      6 C         137.8346  141.9289  162.1821 C.3     1  UNL1        0.0193
      7 C         138.0202  140.5720  162.7939 C.3     1  UNL1        0.0286
      8 C         138.0187  142.3919  163.3292 C.3     1  UNL1        0.1562
      9 O         138.1866  141.1649  163.8824 O.3     1  UNL1       -0.3572
     10 N         137.7384  144.5136  162.4275 N.3     1  UNL1       -0.2926
     11 H         136.9913  144.9720  162.9491 H       1  UNL1        0.1236
     12 C         138.8866  145.4775  162.3782 C.3     1  UNL1        0.1152
     13 C         140.2911  144.9653  162.2553 C.ar    1  UNL1        0.0765
     14 C         141.2798  145.2160  163.3551 C.ar    1  UNL1        0.0193
     15 C         142.6842  144.7038  163.2321 C.ar    1  UNL1        0.0411
     16 C         143.1000  143.9409  162.0094 C.ar    1  UNL1        0.1708
     17 C         142.1113  143.6902  160.9096 C.ar    1  UNL1        0.1682
     18 N         140.7069  144.2024  161.0325 N.ar    1  UNL1       -0.2304
     19 N         142.5271  142.9273  159.6868 N.am    1  UNL1       -0.2639
     20 C         143.9315  142.4151  159.5638 C.2     1  UNL1        0.2718
     21 O         144.3473  141.6522  158.3411 O.2     1  UNL1       -0.2707
     22 C         144.9203  142.6658  160.6637 C.3     1  UNL1        0.2898
     23 O         144.5045  143.4287  161.8865 O.3     1  UNL1       -0.4628
     24 H         141.8781  142.7628  158.9650 H       1  UNL1        0.1565
     25 C         139.8190  138.6871  165.4230 C.3     1  UNL1        0.0327
     26 C         142.7935  141.9431  166.3178 C.ar    1  UNL1        0.2249
     27 C         144.0240  142.0878  165.4724 C.ar    1  UNL1        0.0593
     28 C         144.2631  141.1472  164.3287 C.ar    1  UNL1        0.0254
     29 C         143.2715  140.0619  164.0304 C.ar    1  UNL1        0.0990
     30 N         143.5106  139.1212  162.8866 N.ar    1  UNL1       -0.2400
     31 C         142.5191  138.0359  162.5884 C.ar    1  UNL1        0.1281
     32 C         141.2885  137.8912  163.4339 C.ar    1  UNL1        0.1566
     33 F         140.2970  136.8058  163.1356 F       1  UNL1       -0.2028
     34 C         141.0495  138.8318  164.5776 C.ar    1  UNL1        0.0261
     35 C         142.0410  139.9171  164.8758 C.ar    1  UNL1        0.1002
     36 N         141.8020  140.8577  166.0195 N.ar    1  UNL1       -0.2104
     37 O         142.5544  142.8837  167.4616 O.3     1  UNL1       -0.4603
     38 N         140.1995  143.8471  169.5050 N.3     1  UNL1       -0.3121
     39 C         141.2234  142.7854  169.7775 C.3     1  UNL1        0.1704
     40 C         141.3447  141.9801  171.0372 C.2     1  UNL1        0.2403
     41 O         140.4634  142.0951  172.2455 O.2     1  UNL1       -0.2735
     42 N         142.5022  141.0396  170.8764 N.am    1  UNL1       -0.2999
     43 C         143.0962  141.2636  169.5174 C.3     1  UNL1        0.1353
     44 C         142.3059  142.3426  168.8383 C.3     1  UNL1        0.2098
     45 H         139.5866  143.9441  170.3145 H       1  UNL1        0.1193
     46 H         139.6463  143.5845  168.6893 H       1  UNL1        0.1193
     47 H         142.8167  140.3894  171.5454 H       1  UNL1        0.1496
@<TRIPOS>BOND
     1    39    38    1
     2    39    40    1
     3    40    41    2
     4    40    42   am
     5    42    43    1
     6    43    44    1
     7    44    37    1
     8    37    26    1
     9    26    27   ar
    10    27    28   ar
    11    28    29   ar
    12    29    30   ar
    13    30    31   ar
    14    31    32   ar
    15    32    33    1
    16    32    34   ar
    17    34    25    1
    18    25     1    1
    19     1     2    1
    20     2     3    1
    21     3     4    1
    22     4     5    1
    23     5    10    1
    24    10    12    1
    25    12    13    1
    26    13    14   ar
    27    14    15   ar
    28    15    16   ar
    29    16    17   ar
    30    17    18   ar
    31    17    19    1
    32    19    20   am
    33    20    21    2
    34    20    22    1
    35    22    23    1
    36     5     6    1
    37     6     7    1
    38     5     8    1
    39     8     9    1
    40    34    35   ar
    41    35    36   ar
    42    44    39    1
    43    36    26   ar
    44    35    29   ar
    45     7     2    1
    46     9     2    1
    47    18    13   ar
    48    23    16    1
    49    38    45    1
    50    38    46    1
    51    42    47    1
    52    10    11    1
    53    19    24    1
@<TRIPOS>MOLECULE
*****
 47 53 0 0 0
SMALL
GASTEIGER

@<TRIPOS>ATOM
      1 C         144.2461  141.3255  164.6421 C.3     1  UNL1        0.0320
      2 C         143.4560  142.5003  164.1465 C.3     1  UNL1        0.0932
      3 C         142.4629  143.1707  165.0489 C.3     1  UNL1        0.0286
      4 C         141.6727  144.3455  164.5533 C.3     1  UNL1        0.0193
      5 C         141.8757  144.8499  163.1553 C.3     1  UNL1        0.0700
      6 C         142.8688  144.1794  162.2529 C.3     1  UNL1        0.0193
      7 C         143.6589  143.0047  162.7485 C.3     1  UNL1        0.0286
      8 C         142.3319  144.2030  163.3821 C.3     1  UNL1        0.1562
      9 O         143.0463  143.1407  163.8303 O.3     1  UNL1       -0.3572
     10 N         141.0856  146.0246  162.6597 N.3     1  UNL1       -0.2926
     11 H         141.5519  146.3583  161.8160 H       1  UNL1        0.1236
     12 C         139.6345  145.8616  162.3168 C.3     1  UNL1        0.1152
     13 C         139.0548  144.4892  162.1418 C.ar    1  UNL1        0.0765
     14 C         138.2830  143.8529  163.2595 C.ar    1  UNL1        0.0193
     15 C         137.7033  142.4806  163.0845 C.ar    1  UNL1        0.0411
     16 C         137.8955  141.7445  161.7917 C.ar    1  UNL1        0.1708
     17 C         138.6673  142.3808  160.6739 C.ar    1  UNL1        0.1682
     18 N         139.2469  143.7531  160.8490 N.ar    1  UNL1       -0.2304
     19 N         138.8594  141.6447  159.3812 N.am    1  UNL1       -0.2639
     20 C         138.2797  140.2724  159.2061 C.2     1  UNL1        0.2718
     21 O         138.4719  139.5364  157.9133 O.2     1  UNL1       -0.2707
     22 C         137.5079  139.6361  160.3239 C.3     1  UNL1        0.2898
     23 O         137.3158  140.3721  161.6167 O.3     1  UNL1       -0.4628
     24 H         139.3660  142.0624  158.6475 H       1  UNL1        0.1565
     25 C         143.5499  140.0380  164.9702 C.3     1  UNL1        0.0327
     26 C         139.4248  139.3302  166.6233 C.ar    1  UNL1        0.2249
     27 C         138.3360  138.8171  165.7282 C.ar    1  UNL1        0.0593
     28 C         138.6222  138.5399  164.2822 C.ar    1  UNL1        0.0254
     29 C         139.9973  138.7758  163.7311 C.ar    1  UNL1        0.0990
     30 N         140.2835  138.4986  162.2850 N.ar    1  UNL1       -0.2400
     31 C         141.6585  138.7346  161.7339 C.ar    1  UNL1        0.1281
     32 C         142.7473  139.2477  162.6291 C.ar    1  UNL1        0.1566
     33 F         144.1223  139.4837  162.0781 F       1  UNL1       -0.2028
     34 C         142.4611  139.5249  164.0752 C.ar    1  UNL1        0.0261
     35 C         141.0861  139.2890  164.6262 C.ar    1  UNL1        0.1002
     36 N         140.7998  139.5662  166.0723 N.ar    1  UNL1       -0.2104
     37 O         139.1386  139.6074  168.0695 O.3     1  UNL1       -0.4603
     38 N         139.9337  139.5534  171.2340 N.3     1  UNL1       -0.3121
     39 C         140.2850  140.6342  170.2550 C.3     1  UNL1        0.1704
     40 C         141.0635  141.8798  170.5587 C.2     1  UNL1        0.2403
     41 O         141.6274  142.2634  171.8947 O.2     1  UNL1       -0.2735
     42 N         141.1792  142.6745  169.2917 N.am    1  UNL1       -0.2999
     43 C         140.4722  141.9200  168.2051 C.3     1  UNL1        0.1353
     44 C         139.9196  140.6590  168.8004 C.3     1  UNL1        0.2098
     45 H         140.3073  139.7922  172.1526 H       1  UNL1        0.1193
     46 H         140.3355  138.6691  170.9229 H       1  UNL1        0.1193
     47 H         141.6386  143.5395  169.1910 H       1  UNL1        0.1496
@<TRIPOS>BOND
     1    39    38    1
     2    39    40    1
     3    40    41    2
     4    40    42   am
     5    42    43    1
     6    43    44    1
     7    44    37    1
     8    37    26    1
     9    26    27   ar
    10    27    28   ar
    11    28    29   ar
    12    29    30   ar
    13    30    31   ar
    14    31    32   ar
    15    32    33    1
    16    32    34   ar
    17    34    25    1
    18    25     1    1
    19     1     2    1
    20     2     3    1
    21     3     4    1
    22     4     5    1
    23     5    10    1
    24    10    12    1
    25    12    13    1
    26    13    14   ar
    27    14    15   ar
    28    15    16   ar
    29    16    17   ar
    30    17    18   ar
    31    17    19    1
    32    19    20   am
    33    20    21    2
    34    20    22    1
    35    22    23    1
    36     5     6    1
    37     6     7    1
    38     5     8    1
    39     8     9    1
    40    34    35   ar
    41    35    36   ar
    42    44    39    1
    43    36    26   ar
    44    35    29   ar
    45     7     2    1
    46     9     2    1
    47    18    13   ar
    48    23    16    1
    49    38    45    1
    50    38    46    1
    51    42    47    1
    52    10    11    1
    53    19    24    1
@<TRIPOS>MOLECULE
*****
 47 53 0 0 0
SMALL
GASTEIGER

@<TRIPOS>ATOM
      1 C         137.4483  143.6805  164.5547 C.3     1  UNL1        0.0320
      2 C         137.7265  142.3327  163.9580 C.3     1  UNL1        0.0932
      3 C         137.6255  142.1339  162.4747 C.3     1  UNL1        0.0286
      4 C         137.9038  140.7861  161.8779 C.3     1  UNL1        0.0193
      5 C         138.2830  139.6371  162.7645 C.3     1  UNL1        0.0700
      6 C         138.3840  139.8360  164.2479 C.3     1  UNL1        0.0193
      7 C         138.1058  141.1837  164.8446 C.3     1  UNL1        0.0286
      8 C         138.1399  140.3571  163.1375 C.3     1  UNL1        0.1562
      9 O         137.8883  141.5758  163.6770 O.3     1  UNL1       -0.3572
     10 N         138.5613  138.2894  162.1678 N.3     1  UNL1       -0.2926
     11 H         138.2620  138.3312  161.1936 H       1  UNL1        0.1236
     12 C         139.9581  137.7427  162.1687 C.3     1  UNL1        0.1152
     13 C         141.1288  138.6759  162.0753 C.ar    1  UNL1        0.0765
     14 C         142.2545  138.5679  163.0607 C.ar    1  UNL1        0.0193
     15 C         143.4251  139.5011  162.9672 C.ar    1  UNL1        0.0411
     16 C         143.4700  140.5423  161.8884 C.ar    1  UNL1        0.1708
     17 C         142.3443  140.6503  160.9029 C.ar    1  UNL1        0.1682
     18 N         141.1737  139.7171  160.9964 N.ar    1  UNL1       -0.2304
     19 N         142.3892  141.6915  159.8241 N.am    1  UNL1       -0.2639
     20 C         143.5598  142.6246  159.7306 C.2     1  UNL1        0.2718
     21 O         143.6048  143.6658  158.6518 O.2     1  UNL1       -0.2707
     22 C         144.6856  142.5167  160.7161 C.3     1  UNL1        0.2898
     23 O         144.6407  141.4755  161.7949 O.3     1  UNL1       -0.4628
     24 H         141.6504  141.7623  159.1773 H       1  UNL1        0.1565
     25 C         138.5857  144.5735  164.9534 C.3     1  UNL1        0.0327
     26 C         141.9885  142.3863  166.9249 C.ar    1  UNL1        0.2249
     27 C         143.3115  142.2725  166.2272 C.ar    1  UNL1        0.0593
     28 C         143.5001  142.8879  164.8723 C.ar    1  UNL1        0.0254
     29 C         142.3658  143.6170  164.2152 C.ar    1  UNL1        0.0990
     30 N         142.5546  144.2324  162.8602 N.ar    1  UNL1       -0.2400
     31 C         141.4203  144.9614  162.2031 C.ar    1  UNL1        0.1281
     32 C         140.0973  145.0751  162.9009 C.ar    1  UNL1        0.1566
     33 F         138.9630  145.8042  162.2437 F       1  UNL1       -0.2028
     34 C         139.9086  144.4598  164.2557 C.ar    1  UNL1        0.0261
     35 C         141.0429  143.7307  164.9129 C.ar    1  UNL1        0.1002
     36 N         140.8542  143.1153  166.2677 N.ar    1  UNL1       -0.2104
     37 O         141.7998  141.7709  168.2798 O.3     1  UNL1       -0.4603
     38 N         140.0727  141.8453  171.0477 N.3     1  UNL1       -0.3121
     39 C         139.7750  140.9996  169.8451 C.3     1  UNL1        0.1704
     40 C         138.6311  140.0397  169.7037 C.2     1  UNL1        0.2403
     41 O         137.5841  139.7569  170.7399 O.2     1  UNL1       -0.2735
     42 N         138.7180  139.4122  168.3440 N.am    1  UNL1       -0.2999
     43 C         139.9156  139.9843  167.6451 C.3     1  UNL1        0.1353
     44 C         140.5688  140.9654  168.5729 C.3     1  UNL1        0.2098
     45 H         139.3724  141.6702  171.7683 H       1  UNL1        0.1193
     46 H         140.0506  142.8305  170.7844 H       1  UNL1        0.1193
     47 H         138.0979  138.7424  167.9750 H       1  UNL1        0.1496
@<TRIPOS>BOND
     1    39    38    1
     2    39    40    1
     3    40    41    2
     4    40    42   am
     5    42    43    1
     6    43    44    1
     7    44    37    1
     8    37    26    1
     9    26    27   ar
    10    27    28   ar
    11    28    29   ar
    12    29    30   ar
    13    30    31   ar
    14    31    32   ar
    15    32    33    1
    16    32    34   ar
    17    34    25    1
    18    25     1    1
    19     1     2    1
    20     2     3    1
    21     3     4    1
    22     4     5    1
    23     5    10    1
    24    10    12    1
    25    12    13    1
    26    13    14   ar
    27    14    15   ar
    28    15    16   ar
    29    16    17   ar
    30    17    18   ar
    31    17    19    1
    32    19    20   am
    33    20    21    2
    34    20    22    1
    35    22    23    1
    36     5     6    1
    37     6     7    1
    38     5     8    1
    39     8     9    1
    40    34    35   ar
    41    35    36   ar
    42    44    39    1
    43    36    26   ar
    44    35    29   ar
    45     7     2    1
    46     9     2    1
    47    18    13   ar
    48    23    16    1
    49    38    45    1
    50    38    46    1
    51    42    47    1
    52    10    11    1
    53    19    24    1
@<TRIPOS>MOLECULE
*****
 47 53 0 0 0
SMALL
GASTEIGER

@<TRIPOS>ATOM
      1 C         138.7360  138.1232  165.4648 C.3     1  UNL1        0.0320
      2 C         139.9003  138.0014  164.5269 C.3     1  UNL1        0.0932
      3 C         141.3007  138.1268  165.0496 C.3     1  UNL1        0.0286
      4 C         142.4651  138.0050  164.1117 C.3     1  UNL1        0.0193
      5 C         142.2290  137.7577  162.6512 C.3     1  UNL1        0.0700
      6 C         140.8285  137.6323  162.1285 C.3     1  UNL1        0.0193
      7 C         139.6643  137.7541  163.0664 C.3     1  UNL1        0.0286
      8 C         141.5592  137.8172  163.1265 C.3     1  UNL1        0.1562
      9 O         140.5065  137.9274  163.9746 O.3     1  UNL1       -0.3572
     10 N         143.3932  137.6359  161.7133 N.3     1  UNL1       -0.2926
     11 H         143.1813  136.8654  161.0794 H       1  UNL1        0.1236
     12 C         143.7933  138.8020  160.8590 C.3     1  UNL1        0.1152
     13 C         143.6106  140.2016  161.3670 C.ar    1  UNL1        0.0765
     14 C         142.7681  141.1749  160.5972 C.ar    1  UNL1        0.0193
     15 C         142.5855  142.5744  161.1052 C.ar    1  UNL1        0.0411
     16 C         143.2454  143.0005  162.3831 C.ar    1  UNL1        0.1708
     17 C         144.0879  142.0271  163.1530 C.ar    1  UNL1        0.1682
     18 N         144.2705  140.6277  162.6449 N.ar    1  UNL1       -0.2304
     19 N         144.7478  142.4532  164.4308 N.am    1  UNL1       -0.2639
     20 C         144.5652  143.8527  164.9389 C.2     1  UNL1        0.2718
     21 O         145.2251  144.2788  166.2168 O.2     1  UNL1       -0.2707
     22 C         143.7226  144.8261  164.1690 C.3     1  UNL1        0.2898
     23 O         143.0627  144.4000  162.8911 O.3     1  UNL1       -0.4628
     24 H         145.3008  141.8144  164.9361 H       1  UNL1        0.1565
     25 C         138.1000  139.4611  165.7009 C.3     1  UNL1        0.0327
     26 C         138.4996  143.0235  162.9807 C.ar    1  UNL1        0.2249
     27 C         139.3434  144.1924  163.3948 C.ar    1  UNL1        0.0593
     28 C         140.0539  144.1739  164.7157 C.ar    1  UNL1        0.0254
     29 C         139.9207  142.9864  165.6224 C.ar    1  UNL1        0.0990
     30 N         140.6314  142.9680  166.9433 N.ar    1  UNL1       -0.2400
     31 C         140.4982  141.7805  167.8500 C.ar    1  UNL1        0.1281
     32 C         139.6543  140.6115  167.4359 C.ar    1  UNL1        0.1566
     33 F         139.5212  139.4240  168.3426 F       1  UNL1       -0.2028
     34 C         138.9438  140.6300  166.1150 C.ar    1  UNL1        0.0261
     35 C         139.0770  141.8175  165.2083 C.ar    1  UNL1        0.1002
     36 N         138.3664  141.8360  163.8874 N.ar    1  UNL1       -0.2104
     37 O         137.7890  143.0420  161.6598 O.3     1  UNL1       -0.4603
     38 N         137.3547  139.8339  161.2485 N.3     1  UNL1       -0.3121
     39 C         138.1092  140.7467  160.3279 C.3     1  UNL1        0.1704
     40 C         138.7966  140.3451  159.0566 C.2     1  UNL1        0.2403
     41 O         138.8501  138.9603  158.4826 O.2     1  UNL1       -0.2735
     42 N         139.4210  141.5716  158.4599 N.am    1  UNL1       -0.2999
     43 C         139.1195  142.7311  159.3625 C.3     1  UNL1        0.1353
     44 C         138.3088  142.2213  160.5169 C.3     1  UNL1        0.2098
     45 H         137.3770  138.8836  160.8785 H       1  UNL1        0.1193
     46 H         136.3870  140.1480  161.3208 H       1  UNL1        0.1193
     47 H         139.9379  141.6089  157.6229 H       1  UNL1        0.1496
@<TRIPOS>BOND
     1    39    38    1
     2    39    40    1
     3    40    41    2
     4    40    42   am
     5    42    43    1
     6    43    44    1
     7    44    37    1
     8    37    26    1
     9    26    27   ar
    10    27    28   ar
    11    28    29   ar
    12    29    30   ar
    13    30    31   ar
    14    31    32   ar
    15    32    33    1
    16    32    34   ar
    17    34    25    1
    18    25     1    1
    19     1     2    1
    20     2     3    1
    21     3     4    1
    22     4     5    1
    23     5    10    1
    24    10    12    1
    25    12    13    1
    26    13    14   ar
    27    14    15   ar
    28    15    16   ar
    29    16    17   ar
    30    17    18   ar
    31    17    19    1
    32    19    20   am
    33    20    21    2
    34    20    22    1
    35    22    23    1
    36     5     6    1
    37     6     7    1
    38     5     8    1
    39     8     9    1
    40    34    35   ar
    41    35    36   ar
    42    44    39    1
    43    36    26   ar
    44    35    29   ar
    45     7     2    1
    46     9     2    1
    47    18    13   ar
    48    23    16    1
    49    38    45    1
    50    38    46    1
    51    42    47    1
    52    10    11    1
    53    19    24    1
@<TRIPOS>MOLECULE
*****
 47 53 0 0 0
SMALL
GASTEIGER

@<TRIPOS>ATOM
      1 C         144.4637  138.7480  162.8018 C.3     1  UNL1        0.0320
      2 C         143.0102  138.4640  162.5634 C.3     1  UNL1        0.0932
      3 C         142.4168  138.6816  161.2032 C.3     1  UNL1        0.0286
      4 C         140.9632  138.3976  160.9648 C.3     1  UNL1        0.0193
      5 C         140.1033  137.8961  162.0868 C.3     1  UNL1        0.0700
      6 C         140.6968  137.6785  163.4472 C.3     1  UNL1        0.0193
      7 C         142.1502  137.9625  163.6854 C.3     1  UNL1        0.0286
      8 C         140.8944  138.0377  162.2656 C.3     1  UNL1        0.1562
      9 O         142.2087  138.2945  162.4811 O.3     1  UNL1       -0.3572
     10 N         138.6498  137.6121  161.8485 N.3     1  UNL1       -0.2926
     11 H         138.3227  137.0636  162.6438 H       1  UNL1        0.1236
     12 C         137.6825  138.7456  161.6771 C.3     1  UNL1        0.1152
     13 C         137.9202  140.0477  162.3829 C.ar    1  UNL1        0.0765
     14 C         137.8639  140.1103  163.8805 C.ar    1  UNL1        0.0193
     15 C         138.1016  141.4124  164.5862 C.ar    1  UNL1        0.0411
     16 C         138.3956  142.6519  163.7943 C.ar    1  UNL1        0.1708
     17 C         138.4520  142.5893  162.2967 C.ar    1  UNL1        0.1682
     18 N         138.2143  141.2873  161.5910 N.ar    1  UNL1       -0.2304
     19 N         138.7461  143.8288  161.5047 N.am    1  UNL1       -0.2639
     20 C         138.9838  145.1309  162.2104 C.2     1  UNL1        0.2718
     21 O         139.2778  146.3704  161.4185 O.2     1  UNL1       -0.2707
     22 C         138.9274  145.1935  163.7081 C.3     1  UNL1        0.2898
     23 O         138.6333  143.9540  164.5000 O.3     1  UNL1       -0.4628
     24 H         138.7830  143.7878  160.5218 H       1  UNL1        0.1565
     25 C         144.8850  140.0646  163.3842 C.3     1  UNL1        0.0327
     26 C         142.4500  141.0836  167.0287 C.ar    1  UNL1        0.2249
     27 C         141.5096  142.2518  166.9998 C.ar    1  UNL1        0.0593
     28 C         141.3808  143.0803  165.7560 C.ar    1  UNL1        0.0254
     29 C         142.1925  142.7406  164.5412 C.ar    1  UNL1        0.0990
     30 N         142.0636  143.5692  163.2974 N.ar    1  UNL1       -0.2400
     31 C         142.8753  143.2295  162.0826 C.ar    1  UNL1        0.1281
     32 C         143.8158  142.0613  162.1115 C.ar    1  UNL1        0.1566
     33 F         144.6274  141.7216  160.8967 F       1  UNL1       -0.2028
     34 C         143.9446  141.2328  163.3553 C.ar    1  UNL1        0.0261
     35 C         143.1329  141.5724  164.5701 C.ar    1  UNL1        0.1002
     36 N         143.2617  140.7439  165.8138 N.ar    1  UNL1       -0.2104
     37 O         142.5788  140.2550  168.2725 O.3     1  UNL1       -0.4603
     38 N         139.4411  139.4917  167.8020 N.3     1  UNL1       -0.3121
     39 C         140.0555  139.9383  169.0955 C.3     1  UNL1        0.1704
     40 C         139.3355  140.1125  170.3998 C.2     1  UNL1        0.2403
     41 O         137.8747  139.8706  170.6397 O.2     1  UNL1       -0.2735
     42 N         140.3328  140.5710  171.4221 N.am    1  UNL1       -0.2999
     43 C         141.6691  140.6802  170.7496 C.3     1  UNL1        0.1353
     44 C         141.4978  140.2892  169.3117 C.3     1  UNL1        0.2098
     45 H         138.4451  139.3204  167.9400 H       1  UNL1        0.1193
     46 H         139.8936  138.6327  167.4894 H       1  UNL1        0.1193
     47 H         140.1435  140.7661  172.3684 H       1  UNL1        0.1496
@<TRIPOS>BOND
     1    39    38    1
     2    39    40    1
     3    40    41    2
     4    40    42   am
     5    42    43    1
     6    43    44    1
     7    44    37    1
     8    37    26    1
     9    26    27   ar
    10    27    28   ar
    11    28    29   ar
    12    29    30   ar
    13    30    31   ar
    14    31    32   ar
    15    32    33    1
    16    32    34   ar
    17    34    25    1
    18    25     1    1
    19     1     2    1
    20     2     3    1
    21     3     4    1
    22     4     5    1
    23     5    10    1
    24    10    12    1
    25    12    13    1
    26    13    14   ar
    27    14    15   ar
    28    15    16   ar
    29    16    17   ar
    30    17    18   ar
    31    17    19    1
    32    19    20   am
    33    20    21    2
    34    20    22    1
    35    22    23    1
    36     5     6    1
    37     6     7    1
    38     5     8    1
    39     8     9    1
    40    34    35   ar
    41    35    36   ar
    42    44    39    1
    43    36    26   ar
    44    35    29   ar
    45     7     2    1
    46     9     2    1
    47    18    13   ar
    48    23    16    1
    49    38    45    1
    50    38    46    1
    51    42    47    1
    52    10    11    1
    53    19    24    1
