@<TRIPOS>MOLECULE
*****
 20 21 0 0 0
SMALL
GASTEIGER

@<TRIPOS>ATOM
      1 C         137.2200  137.8475  167.2060 C.3     1  UNL1        0.0310
      2 C         138.1120  139.0207  166.9269 C.ar    1  UNL1       -0.0219
      3 C         138.1709  139.6066  165.5474 C.ar    1  UNL1       -0.0011
      4 C         139.0629  140.7798  165.2683 C.ar    1  UNL1        0.0369
      5 C         139.8960  141.3671  166.3687 C.ar    1  UNL1        0.1425
      6 C         139.8371  140.7811  167.7482 C.ar    1  UNL1        0.0281
      7 C         138.9451  139.6079  168.0273 C.ar    1  UNL1       -0.0041
      8 O         140.7880  142.5403  166.0896 O.3     1  UNL1       -0.4537
      9 C         142.1088  142.3332  165.4094 C.ar    1  UNL1        0.1462
     10 C         142.8047  143.4895  164.7546 C.ar    1  UNL1        0.0384
     11 C         144.1254  143.2823  164.0744 C.ar    1  UNL1        0.0154
     12 C         144.7503  141.9189  164.0489 C.ar    1  UNL1        0.0684
     13 CL        146.0711  141.7118  163.3687 Cl      1  UNL1       -0.0814
     14 C         144.0544  140.7626  164.7037 C.ar    1  UNL1        0.0712
     15 CL        144.6793  139.3992  164.6782 Cl      1  UNL1       -0.0813
     16 C         142.7337  140.9697  165.3839 C.ar    1  UNL1        0.0497
     17 C         140.6703  141.3684  168.8488 C.3     1  UNL1        0.1023
     18 N         142.1307  141.0390  168.9412 N.3     1  UNL1       -0.2664
     19 C         143.1429  142.1411  169.0464 C.3     1  UNL1        0.0899
     20 C         142.5790  139.6076  168.9284 C.3     1  UNL1        0.0899
@<TRIPOS>BOND
     1     1     2    1
     2     2     3   ar
     3     3     4   ar
     4     4     5   ar
     5     5     8    1
     6     8     9    1
     7     9    10   ar
     8    10    11   ar
     9    11    12   ar
    10    12    13    1
    11    12    14   ar
    12    14    15    1
    13    14    16   ar
    14     5     6   ar
    15     6    17    1
    16    17    18    1
    17    18    19    1
    18    18    20    1
    19     6     7   ar
    20     7     2   ar
    21    16     9   ar
@<TRIPOS>MOLECULE
*****
 20 21 0 0 0
SMALL
GASTEIGER

@<TRIPOS>ATOM
      1 C         143.8424  138.0138  166.5981 C.3     1  UNL1        0.0310
      2 C         142.6743  138.9334  166.3981 C.ar    1  UNL1       -0.0219
      3 C         141.7857  138.7677  165.2011 C.ar    1  UNL1       -0.0011
      4 C         140.6176  139.6872  165.0011 C.ar    1  UNL1        0.0369
      5 C         140.3382  140.7725  165.9981 C.ar    1  UNL1        0.1425
      6 C         141.2268  140.9382  167.1951 C.ar    1  UNL1        0.0281
      7 C         142.3949  140.0187  167.3951 C.ar    1  UNL1       -0.0041
      8 O         139.1701  141.6920  165.7981 O.3     1  UNL1       -0.4537
      9 C         139.2747  142.8395  164.8378 C.ar    1  UNL1        0.1462
     10 C         138.0914  143.2283  164.0020 C.ar    1  UNL1        0.0384
     11 C         138.1961  144.3759  163.0417 C.ar    1  UNL1        0.0154
     12 C         139.4840  145.1346  162.9172 C.ar    1  UNL1        0.0684
     13 CL        139.5887  146.2822  161.9569 Cl      1  UNL1       -0.0814
     14 C         140.6673  144.7458  163.7531 C.ar    1  UNL1        0.0712
     15 CL        141.9553  145.5046  163.6286 Cl      1  UNL1       -0.0813
     16 C         140.5627  143.5983  164.7134 C.ar    1  UNL1        0.0497
     17 C         140.9474  142.0235  168.1922 C.3     1  UNL1        0.1023
     18 N         140.0624  141.7486  169.3717 N.3     1  UNL1       -0.2664
     19 C         139.9141  142.7768  170.4539 C.3     1  UNL1        0.0899
     20 C         139.3257  140.4457  169.4691 C.3     1  UNL1        0.0899
@<TRIPOS>BOND
     1     1     2    1
     2     2     3   ar
     3     3     4   ar
     4     4     5   ar
     5     5     8    1
     6     8     9    1
     7     9    10   ar
     8    10    11   ar
     9    11    12   ar
    10    12    13    1
    11    12    14   ar
    12    14    15    1
    13    14    16   ar
    14     5     6   ar
    15     6    17    1
    16    17    18    1
    17    18    19    1
    18    18    20    1
    19     6     7   ar
    20     7     2   ar
    21    16     9   ar
@<TRIPOS>MOLECULE
*****
 20 21 0 0 0
SMALL
GASTEIGER

@<TRIPOS>ATOM
      1 C         137.1543  137.7843  167.3113 C.3     1  UNL1        0.0310
      2 C         138.1035  138.9105  167.0273 C.ar    1  UNL1       -0.0219
      3 C         138.2808  139.4057  165.6225 C.ar    1  UNL1       -0.0011
      4 C         139.2299  140.5320  165.3385 C.ar    1  UNL1        0.0369
      5 C         140.0017  141.1631  166.4592 C.ar    1  UNL1        0.1425
      6 C         139.8244  140.6679  167.8639 C.ar    1  UNL1        0.0281
      7 C         138.8752  139.5416  168.1480 C.ar    1  UNL1       -0.0041
      8 O         140.9509  142.2893  166.1751 O.3     1  UNL1       -0.4537
      9 C         140.6470  143.2681  165.0799 C.ar    1  UNL1        0.1462
     10 C         139.4005  144.1002  165.1422 C.ar    1  UNL1        0.0384
     11 C         139.0966  145.0790  164.0468 C.ar    1  UNL1        0.0154
     12 C         140.0392  145.2256  162.8893 C.ar    1  UNL1        0.0684
     13 CL        139.7354  146.2044  161.7939 Cl      1  UNL1       -0.0814
     14 C         141.2857  144.3935  162.8270 C.ar    1  UNL1        0.0712
     15 CL        142.2283  144.5402  161.6694 Cl      1  UNL1       -0.0813
     16 C         141.5896  143.4148  163.9223 C.ar    1  UNL1        0.0497
     17 C         140.5962  141.2990  168.9847 C.3     1  UNL1        0.1023
     18 N         142.0318  140.9268  169.2095 N.3     1  UNL1       -0.2664
     19 C         143.0948  141.9847  169.1775 C.3     1  UNL1        0.0899
     20 C         142.4044  139.4967  169.4663 C.3     1  UNL1        0.0899
@<TRIPOS>BOND
     1     1     2    1
     2     2     3   ar
     3     3     4   ar
     4     4     5   ar
     5     5     8    1
     6     8     9    1
     7     9    10   ar
     8    10    11   ar
     9    11    12   ar
    10    12    13    1
    11    12    14   ar
    12    14    15    1
    13    14    16   ar
    14     5     6   ar
    15     6    17    1
    16    17    18    1
    17    18    19    1
    18    18    20    1
    19     6     7   ar
    20     7     2   ar
    21    16     9   ar
@<TRIPOS>MOLECULE
*****
 20 21 0 0 0
SMALL
GASTEIGER

@<TRIPOS>ATOM
      1 C         138.7291  140.2040  170.2011 C.3     1  UNL1        0.0310
      2 C         139.5531  140.7434  169.0697 C.ar    1  UNL1       -0.0219
      3 C         140.2490  142.0645  169.2121 C.ar    1  UNL1       -0.0011
      4 C         141.0731  142.6039  168.0807 C.ar    1  UNL1        0.0369
      5 C         141.2011  141.8222  166.8069 C.ar    1  UNL1        0.1425
      6 C         140.5052  140.5011  166.6646 C.ar    1  UNL1        0.0281
      7 C         139.6812  139.9617  167.7960 C.ar    1  UNL1       -0.0041
      8 O         142.0252  142.3616  165.6756 O.3     1  UNL1       -0.4537
      9 C         141.4288  143.3505  164.7184 C.ar    1  UNL1        0.1462
     10 C         142.3073  144.3557  164.0343 C.ar    1  UNL1        0.0384
     11 C         141.7108  145.3447  163.0770 C.ar    1  UNL1        0.0154
     12 C         140.2360  145.3285  162.8039 C.ar    1  UNL1        0.0684
     13 CL        139.6396  146.3175  161.8467 Cl      1  UNL1       -0.0814
     14 C         139.3576  144.3233  163.4880 C.ar    1  UNL1        0.0712
     15 CL        137.8827  144.3072  163.2149 Cl      1  UNL1       -0.0813
     16 C         139.9539  143.3344  164.4452 C.ar    1  UNL1        0.0497
     17 C         140.6332  139.7193  165.3908 C.3     1  UNL1        0.1023
     18 N         141.5550  138.5377  165.3254 N.3     1  UNL1       -0.2664
     19 C         142.8916  138.5907  166.0042 C.3     1  UNL1        0.0899
     20 C         141.1401  137.3031  164.5813 C.3     1  UNL1        0.0899
@<TRIPOS>BOND
     1     1     2    1
     2     2     3   ar
     3     3     4   ar
     4     4     5   ar
     5     5     8    1
     6     8     9    1
     7     9    10   ar
     8    10    11   ar
     9    11    12   ar
    10    12    13    1
    11    12    14   ar
    12    14    15    1
    13    14    16   ar
    14     5     6   ar
    15     6    17    1
    16    17    18    1
    17    18    19    1
    18    18    20    1
    19     6     7   ar
    20     7     2   ar
    21    16     9   ar
@<TRIPOS>MOLECULE
*****
 20 21 0 0 0
SMALL
GASTEIGER

@<TRIPOS>ATOM
      1 C         142.9325  140.0392  170.5860 C.3     1  UNL1        0.0310
      2 C         142.0424  139.9150  169.3850 C.ar    1  UNL1       -0.0219
      3 C         140.5593  140.0872  169.5296 C.ar    1  UNL1       -0.0011
      4 C         139.6693  139.9629  168.3286 C.ar    1  UNL1        0.0369
      5 C         140.2622  139.6665  166.9831 C.ar    1  UNL1        0.1425
      6 C         141.7452  139.4943  166.8385 C.ar    1  UNL1        0.0281
      7 C         142.6353  139.6185  168.0395 C.ar    1  UNL1       -0.0041
      8 O         139.3721  139.5422  165.7821 O.3     1  UNL1       -0.4537
      9 C         138.9069  140.7735  165.0627 C.ar    1  UNL1        0.1462
     10 C         137.9397  140.6555  163.9224 C.ar    1  UNL1        0.0384
     11 C         137.4745  141.8868  163.2030 C.ar    1  UNL1        0.0154
     12 C         137.9766  143.2361  163.6240 C.ar    1  UNL1        0.0684
     13 CL        137.5115  144.4675  162.9046 Cl      1  UNL1       -0.0814
     14 C         138.9439  143.3541  164.7643 C.ar    1  UNL1        0.0712
     15 CL        139.4460  144.7035  165.1853 Cl      1  UNL1       -0.0813
     16 C         139.4090  142.1229  165.4837 C.ar    1  UNL1        0.0497
     17 C         142.3382  139.1978  165.4929 C.3     1  UNL1        0.1023
     18 N         143.4227  140.0752  164.9415 N.3     1  UNL1       -0.2664
     19 C         144.6926  139.4645  164.4271 C.3     1  UNL1        0.0899
     20 C         143.2373  141.5632  164.9043 C.3     1  UNL1        0.0899
@<TRIPOS>BOND
     1     1     2    1
     2     2     3   ar
     3     3     4   ar
     4     4     5   ar
     5     5     8    1
     6     8     9    1
     7     9    10   ar
     8    10    11   ar
     9    11    12   ar
    10    12    13    1
    11    12    14   ar
    12    14    15    1
    13    14    16   ar
    14     5     6   ar
    15     6    17    1
    16    17    18    1
    17    18    19    1
    18    18    20    1
    19     6     7   ar
    20     7     2   ar
    21    16     9   ar
@<TRIPOS>MOLECULE
*****
 20 21 0 0 0
SMALL
GASTEIGER

@<TRIPOS>ATOM
      1 C         138.9134  138.0506  161.0838 C.3     1  UNL1        0.0310
      2 C         138.7986  138.4609  162.5220 C.ar    1  UNL1       -0.0219
      3 C         139.0373  137.4562  163.6099 C.ar    1  UNL1       -0.0011
      4 C         138.9225  137.8664  165.0481 C.ar    1  UNL1        0.0369
      5 C         138.5689  139.2813  165.3985 C.ar    1  UNL1        0.1425
      6 C         138.3301  140.2861  164.3106 C.ar    1  UNL1        0.0281
      7 C         138.4449  139.8758  162.8724 C.ar    1  UNL1       -0.0041
      8 O         138.4540  139.6916  166.8367 O.3     1  UNL1       -0.4537
      9 C         139.6854  140.0477  167.6157 C.ar    1  UNL1        0.1462
     10 C         140.9988  140.2101  166.9095 C.ar    1  UNL1        0.0384
     11 C         142.2302  140.5662  167.6886 C.ar    1  UNL1        0.0154
     12 C         142.1482  140.7599  169.1737 C.ar    1  UNL1        0.0684
     13 CL        143.3796  141.1160  169.9528 Cl      1  UNL1       -0.0814
     14 C         140.8348  140.5974  169.8799 C.ar    1  UNL1        0.0712
     15 CL        140.7529  140.7911  171.3651 Cl      1  UNL1       -0.0813
     16 C         139.6035  140.2414  169.1009 C.ar    1  UNL1        0.0497
     17 C         137.9765  141.7011  164.6610 C.3     1  UNL1        0.1023
     18 N         138.6154  142.8390  163.9214 N.3     1  UNL1       -0.2664
     19 C         140.0414  143.2098  164.2027 C.3     1  UNL1        0.0899
     20 C         137.8284  143.6060  162.9004 C.3     1  UNL1        0.0899
@<TRIPOS>BOND
     1     1     2    1
     2     2     3   ar
     3     3     4   ar
     4     4     5   ar
     5     5     8    1
     6     8     9    1
     7     9    10   ar
     8    10    11   ar
     9    11    12   ar
    10    12    13    1
    11    12    14   ar
    12    14    15    1
    13    14    16   ar
    14     5     6   ar
    15     6    17    1
    16    17    18    1
    17    18    19    1
    18    18    20    1
    19     6     7   ar
    20     7     2   ar
    21    16     9   ar
@<TRIPOS>MOLECULE
*****
 20 21 0 0 0
SMALL
GASTEIGER

@<TRIPOS>ATOM
      1 C         137.0479  137.5404  167.4628 C.3     1  UNL1        0.0310
      2 C         138.0728  138.2261  166.6088 C.ar    1  UNL1       -0.0219
      3 C         138.6504  139.5413  167.0408 C.ar    1  UNL1       -0.0011
      4 C         139.6754  140.2270  166.1868 C.ar    1  UNL1        0.0369
      5 C         140.1227  139.5975  164.9009 C.ar    1  UNL1        0.1425
      6 C         139.5451  138.2823  164.4690 C.ar    1  UNL1        0.0281
      7 C         138.5202  137.5966  165.3230 C.ar    1  UNL1       -0.0041
      8 O         141.1477  140.2832  164.0469 O.3     1  UNL1       -0.4537
      9 C         140.8933  141.6713  163.5388 C.ar    1  UNL1        0.1462
     10 C         139.7362  141.9337  162.6209 C.ar    1  UNL1        0.0384
     11 C         139.4818  143.3220  162.1128 C.ar    1  UNL1        0.0154
     12 C         140.3845  144.4477  162.5225 C.ar    1  UNL1        0.0684
     13 CL        140.1301  145.8360  162.0144 Cl      1  UNL1       -0.0814
     14 C         141.5415  144.1853  163.4403 C.ar    1  UNL1        0.0712
     15 CL        142.4441  145.3112  163.8500 Cl      1  UNL1       -0.0813
     16 C         141.7959  142.7972  163.9485 C.ar    1  UNL1        0.0497
     17 C         139.9925  137.6527  163.1830 C.3     1  UNL1        0.1023
     18 N         139.4346  138.1364  161.8773 N.3     1  UNL1       -0.2664
     19 C         140.3609  138.5062  160.7569 C.3     1  UNL1        0.0899
     20 C         137.9504  138.2501  161.6920 C.3     1  UNL1        0.0899
@<TRIPOS>BOND
     1     1     2    1
     2     2     3   ar
     3     3     4   ar
     4     4     5   ar
     5     5     8    1
     6     8     9    1
     7     9    10   ar
     8    10    11   ar
     9    11    12   ar
    10    12    13    1
    11    12    14   ar
    12    14    15    1
    13    14    16   ar
    14     5     6   ar
    15     6    17    1
    16    17    18    1
    17    18    19    1
    18    18    20    1
    19     6     7   ar
    20     7     2   ar
    21    16     9   ar
@<TRIPOS>MOLECULE
*****
 20 21 0 0 0
SMALL
GASTEIGER

@<TRIPOS>ATOM
      1 C         143.9844  137.9821  166.5650 C.3     1  UNL1        0.0310
      2 C         142.7900  138.8636  166.3498 C.ar    1  UNL1       -0.0219
      3 C         142.2465  139.6803  167.4845 C.ar    1  UNL1       -0.0011
      4 C         141.0521  140.5618  167.2694 C.ar    1  UNL1        0.0369
      5 C         140.4012  140.6267  165.9195 C.ar    1  UNL1        0.1425
      6 C         140.9448  139.8101  164.7848 C.ar    1  UNL1        0.0281
      7 C         142.1392  138.9286  165.0000 C.ar    1  UNL1       -0.0041
      8 O         139.2069  141.5083  165.7044 O.3     1  UNL1       -0.4537
      9 C         139.3045  142.6938  164.7906 C.ar    1  UNL1        0.1462
     10 C         138.1274  143.0923  163.9506 C.ar    1  UNL1        0.0384
     11 C         138.2252  144.2779  163.0368 C.ar    1  UNL1        0.0154
     12 C         139.5000  145.0648  162.9630 C.ar    1  UNL1        0.0684
     13 CL        139.5977  146.2504  162.0492 Cl      1  UNL1       -0.0814
     14 C         140.6771  144.6663  163.8030 C.ar    1  UNL1        0.0712
     15 CL        141.9519  145.4534  163.7292 Cl      1  UNL1       -0.0813
     16 C         140.5794  143.4809  164.7168 C.ar    1  UNL1        0.0497
     17 C         140.2940  139.8750  163.4349 C.3     1  UNL1        0.1023
     18 N         139.0283  139.1131  163.1751 N.3     1  UNL1       -0.2664
     19 C         137.9189  139.7474  162.3895 C.3     1  UNL1        0.0899
     20 C         138.8719  137.7170  163.7008 C.3     1  UNL1        0.0899
@<TRIPOS>BOND
     1     1     2    1
     2     2     3   ar
     3     3     4   ar
     4     4     5   ar
     5     5     8    1
     6     8     9    1
     7     9    10   ar
     8    10    11   ar
     9    11    12   ar
    10    12    13    1
    11    12    14   ar
    12    14    15    1
    13    14    16   ar
    14     5     6   ar
    15     6    17    1
    16    17    18    1
    17    18    19    1
    18    18    20    1
    19     6     7   ar
    20     7     2   ar
    21    16     9   ar
@<TRIPOS>MOLECULE
*****
 20 21 0 0 0
SMALL
GASTEIGER

@<TRIPOS>ATOM
      1 C         142.6221  138.7001  170.0423 C.3     1  UNL1        0.0310
      2 C         142.6446  139.7255  168.9478 C.ar    1  UNL1       -0.0219
      3 C         142.4957  141.1806  169.2802 C.ar    1  UNL1       -0.0011
      4 C         142.5181  142.2061  168.1857 C.ar    1  UNL1        0.0369
      5 C         142.6895  141.7765  166.7589 C.ar    1  UNL1        0.1425
      6 C         142.8384  140.3214  166.4265 C.ar    1  UNL1        0.0281
      7 C         142.8160  139.2959  167.5210 C.ar    1  UNL1       -0.0041
      8 O         142.7120  142.8020  165.6644 O.3     1  UNL1       -0.4537
      9 C         141.4297  143.2418  165.0223 C.ar    1  UNL1        0.1462
     10 C         140.1308  142.6154  165.4351 C.ar    1  UNL1        0.0384
     11 C         138.8485  143.0554  164.7930 C.ar    1  UNL1        0.0154
     12 C         138.8652  144.1217  163.7382 C.ar    1  UNL1        0.0684
     13 CL        137.5829  144.5616  163.0961 Cl      1  UNL1       -0.0814
     14 C         140.1641  144.7481  163.3254 C.ar    1  UNL1        0.0712
     15 CL        140.1807  145.8144  162.2705 Cl      1  UNL1       -0.0813
     16 C         141.4464  144.3082  163.9674 C.ar    1  UNL1        0.0497
     17 C         143.0098  139.8917  164.9995 C.3     1  UNL1        0.1023
     18 N         141.8081  139.7192  164.1187 N.3     1  UNL1       -0.2664
     19 C         141.7840  140.3388  162.7529 C.3     1  UNL1        0.0899
     20 C         140.6303  138.9270  164.6037 C.3     1  UNL1        0.0899
@<TRIPOS>BOND
     1     1     2    1
     2     2     3   ar
     3     3     4   ar
     4     4     5   ar
     5     5     8    1
     6     8     9    1
     7     9    10   ar
     8    10    11   ar
     9    11    12   ar
    10    12    13    1
    11    12    14   ar
    12    14    15    1
    13    14    16   ar
    14     5     6   ar
    15     6    17    1
    16    17    18    1
    17    18    19    1
    18    18    20    1
    19     6     7   ar
    20     7     2   ar
    21    16     9   ar
