@<TRIPOS>MOLECULE
*****
 41 44 0 0 0
SMALL
GASTEIGER

@<TRIPOS>ATOM
      1 C         139.5749  139.2358  160.4230 C.ar    1  UNL1        0.0597
      2 C         139.5487  138.3667  161.6452 C.ar    1  UNL1        0.0423
      3 C         138.8866  138.8558  162.8991 C.ar    1  UNL1        0.1504
      4 C         138.2506  140.2140  162.9307 C.ar    1  UNL1        0.0744
      5 C         138.2767  141.0830  161.7084 C.ar    1  UNL1        0.1416
      6 C         138.9389  140.5939  160.4546 C.ar    1  UNL1        0.0416
      7 N         141.7326  138.6568  159.0966 N.am    1  UNL1       -0.2644
      8 C         140.2371  138.7467  159.1690 C.2     1  UNL1        0.2508
      9 O         139.4036  138.3475  157.9874 O.2     1  UNL1       -0.2698
     10 H         142.2796  138.9188  159.8721 H       1  UNL1        0.1566
     11 N         143.2732  136.7067  156.1151 N.ar    1  UNL1       -0.2357
     12 C         143.5543  138.1237  155.7109 C.ar    1  UNL1        0.0988
     13 C         143.0114  139.0267  156.7787 C.ar    1  UNL1        0.0565
     14 C         142.3948  138.1677  157.8426 C.ar    1  UNL1        0.1557
     15 N         142.5565  136.7340  157.4325 N.ar    1  UNL1       -0.1534
     16 C         143.6436  135.4783  155.3382 C.3     1  UNL1        0.2423
     17 P         143.0002  134.1629  155.6632 P.3     1  UNL1        0.3677
     18 O         142.3568  132.8474  155.9883 O.2     1  UNL1       -0.2557
     19 O         144.2908  133.6775  156.2538 O.3     1  UNL1       -0.2928
     20 C         145.3890  132.1690  158.0616 C.3     1  UNL1        0.0352
     21 C         144.3191  133.1377  157.6530 C.3     1  UNL1        0.1515
     22 O         141.7096  134.6483  155.0726 O.3     1  UNL1       -0.2928
     23 C         141.3773  134.3420  153.6423 C.3     1  UNL1        0.1515
     24 C         141.1743  135.4604  152.6635 C.3     1  UNL1        0.0352
     25 O         138.8604  137.9868  164.1215 O.3     1  UNL1       -0.4360
     26 C         139.0136  138.6006  165.4816 C.ar    1  UNL1        0.2297
     27 C         137.8872  138.5257  166.4694 C.ar    1  UNL1        0.0583
     28 C         138.0404  139.1396  167.8295 C.ar    1  UNL1        0.0109
     29 C         139.3200  139.8284  168.2016 C.ar    1  UNL1        0.0729
     30 C         140.4462  139.9032  167.2138 C.ar    1  UNL1        0.1065
     31 N         140.2930  139.2894  165.8537 N.ar    1  UNL1       -0.2097
     32 C         139.4732  140.4422  169.5617 C.2     1  UNL1        0.2505
     33 O         139.1666  139.6346  170.7879 O.2     1  UNL1       -0.2699
     34 N         139.9330  141.8638  169.6954 N.am    1  UNL1       -0.2759
     35 C         140.3207  142.9481  168.7342 C.3     1  UNL1        0.0955
     36 C         140.5831  143.8741  169.8847 C.3     1  UNL1        0.0430
     37 C         140.1954  142.7898  170.8459 C.3     1  UNL1        0.0955
     38 O         137.6407  142.4411  161.7400 O.3     1  UNL1       -0.4791
     39 C         138.0222  143.4233  162.8076 C.3     1  UNL1        0.1661
     40 C         138.8215  144.6424  162.4543 C.3     1  UNL1        0.0472
     41 C         137.6044  143.1863  164.2287 C.3     1  UNL1        0.0472
@<TRIPOS>BOND
     1    20    21    1
     2    21    19    1
     3    19    17    1
     4    17    18    2
     5    17    16    1
     6    16    11    1
     7    11    12   ar
     8    12    13   ar
     9    13    14   ar
    10    14     7    1
    11     7     8   am
    12     8     9    2
    13     8     1    1
    14     1     2   ar
    15     2     3   ar
    16     3    25    1
    17    25    26    1
    18    26    27   ar
    19    27    28   ar
    20    28    29   ar
    21    29    32    1
    22    32    33    2
    23    32    34   am
    24    34    35    1
    25    35    36    1
    26    36    37    1
    27    29    30   ar
    28    30    31   ar
    29     3     4   ar
    30     4     5   ar
    31     5    38    1
    32    38    39    1
    33    39    40    1
    34    39    41    1
    35     5     6   ar
    36    14    15   ar
    37    17    22    1
    38    22    23    1
    39    23    24    1
    40    15    11   ar
    41     6     1   ar
    42    31    26   ar
    43    37    34    1
    44     7    10    1
@<TRIPOS>MOLECULE
*****
 41 44 0 0 0
SMALL
GASTEIGER

@<TRIPOS>ATOM
      1 C         139.3189  139.4318  160.3060 C.ar    1  UNL1        0.0597
      2 C         139.2758  138.5345  161.5072 C.ar    1  UNL1        0.0423
      3 C         138.6682  139.0247  162.7880 C.ar    1  UNL1        0.1504
      4 C         138.1037  140.4121  162.8676 C.ar    1  UNL1        0.0744
      5 C         138.1467  141.3094  161.6664 C.ar    1  UNL1        0.1416
      6 C         138.7543  140.8192  160.3856 C.ar    1  UNL1        0.0416
      7 N         141.3848  138.5945  158.9714 N.am    1  UNL1       -0.2644
      8 C         139.9265  138.9417  159.0251 C.2     1  UNL1        0.2508
      9 O         139.0758  138.7988  157.7979 O.2     1  UNL1       -0.2698
     10 H         141.9431  138.6883  159.7768 H       1  UNL1        0.1566
     11 N         142.8493  136.6419  155.9533 N.ar    1  UNL1       -0.2357
     12 C         143.0055  138.0586  155.4854 C.ar    1  UNL1        0.0988
     13 C         142.4759  138.9624  156.5591 C.ar    1  UNL1        0.0565
     14 C         141.9924  138.1044  157.6904 C.ar    1  UNL1        0.1557
     15 N         142.2232  136.6703  157.3161 N.ar    1  UNL1       -0.1534
     16 C         143.2490  135.4129  155.1922 C.3     1  UNL1        0.2423
     17 P         142.8021  134.0606  155.6629 P.3     1  UNL1        0.3677
     18 O         142.3552  132.7083  156.1337 O.2     1  UNL1       -0.2557
     19 O         141.4725  134.2694  155.0007 O.3     1  UNL1       -0.2928
     20 C         142.2286  132.8600  152.9534 C.3     1  UNL1        0.0352
     21 C         141.2571  133.8096  153.5893 C.3     1  UNL1        0.1515
     22 O         144.1318  133.8518  156.3251 O.3     1  UNL1       -0.2928
     23 C         144.2121  133.1195  157.6318 C.3     1  UNL1        0.1515
     24 C         145.3499  132.1782  157.8953 C.3     1  UNL1        0.0352
     25 O         138.6252  138.1274  163.9893 O.3     1  UNL1       -0.4360
     26 C         138.8275  138.7001  165.3608 C.ar    1  UNL1        0.2297
     27 C         140.1297  139.3546  165.7157 C.ar    1  UNL1        0.0583
     28 C         140.3321  139.9273  167.0872 C.ar    1  UNL1        0.0109
     29 C         139.2321  139.8455  168.1039 C.ar    1  UNL1        0.0729
     30 C         137.9300  139.1911  167.7490 C.ar    1  UNL1        0.1065
     31 N         137.7276  138.6184  166.3775 N.ar    1  UNL1       -0.2097
     32 C         139.4345  140.4183  169.4754 C.2     1  UNL1        0.2505
     33 O         139.1310  139.5879  170.6871 O.2     1  UNL1       -0.2699
     34 N         139.9403  141.8214  169.6351 N.am    1  UNL1       -0.2759
     35 C         140.3393  142.9187  168.6935 C.3     1  UNL1        0.0955
     36 C         140.6556  143.8056  169.8611 C.3     1  UNL1        0.0430
     37 C         140.2567  142.7083  170.8027 C.3     1  UNL1        0.0955
     38 O         137.5822  142.6968  161.7460 O.3     1  UNL1       -0.4791
     39 C         138.2710  143.7404  162.5745 C.3     1  UNL1        0.1661
     40 C         137.8352  143.9829  163.9892 C.3     1  UNL1        0.0472
     41 C         139.3956  144.5415  161.9883 C.3     1  UNL1        0.0472
@<TRIPOS>BOND
     1    20    21    1
     2    21    19    1
     3    19    17    1
     4    17    18    2
     5    17    16    1
     6    16    11    1
     7    11    12   ar
     8    12    13   ar
     9    13    14   ar
    10    14     7    1
    11     7     8   am
    12     8     9    2
    13     8     1    1
    14     1     2   ar
    15     2     3   ar
    16     3    25    1
    17    25    26    1
    18    26    27   ar
    19    27    28   ar
    20    28    29   ar
    21    29    32    1
    22    32    33    2
    23    32    34   am
    24    34    35    1
    25    35    36    1
    26    36    37    1
    27    29    30   ar
    28    30    31   ar
    29     3     4   ar
    30     4     5   ar
    31     5    38    1
    32    38    39    1
    33    39    40    1
    34    39    41    1
    35     5     6   ar
    36    14    15   ar
    37    17    22    1
    38    22    23    1
    39    23    24    1
    40    15    11   ar
    41     6     1   ar
    42    31    26   ar
    43    37    34    1
    44     7    10    1
@<TRIPOS>MOLECULE
*****
 41 44 0 0 0
SMALL
GASTEIGER

@<TRIPOS>ATOM
      1 C         139.1495  140.2901  160.5306 C.ar    1  UNL1        0.0597
      2 C         139.1111  139.2835  161.6419 C.ar    1  UNL1        0.0423
      3 C         138.5563  139.6665  162.9819 C.ar    1  UNL1        0.1504
      4 C         138.0400  141.0561  163.2105 C.ar    1  UNL1        0.0744
      5 C         138.0784  142.0628  162.0991 C.ar    1  UNL1        0.1416
      6 C         138.6332  141.6798  160.7592 C.ar    1  UNL1        0.0416
      7 N         138.9867  138.8999  158.3418 N.am    1  UNL1       -0.2644
      8 C         139.7043  139.9071  159.1906 C.2     1  UNL1        0.2508
      9 O         140.9767  140.5315  158.6994 O.2     1  UNL1       -0.2698
     10 H         138.1516  138.4901  158.6642 H       1  UNL1        0.1566
     11 N         140.9626  137.5711  155.2765 N.ar    1  UNL1       -0.2357
     12 C         139.8278  138.2842  154.6029 C.ar    1  UNL1        0.0988
     13 C         138.9494  138.8687  155.6692 C.ar    1  UNL1        0.0565
     14 C         139.5415  138.5169  157.0017 C.ar    1  UNL1        0.1557
     15 N         140.7857  137.7150  156.7591 N.ar    1  UNL1       -0.1534
     16 C         142.0784  136.8422  154.5884 C.3     1  UNL1        0.2423
     17 P         143.4683  136.8963  155.1499 P.3     1  UNL1        0.3677
     18 O         144.8582  136.9503  155.7113 O.2     1  UNL1       -0.2557
     19 O         143.5724  138.3392  154.7535 O.3     1  UNL1       -0.2928
     20 C         143.6133  140.3333  156.4184 C.3     1  UNL1        0.0352
     21 C         144.3415  139.2992  155.6120 C.3     1  UNL1        0.1515
     22 O         143.3642  135.4533  155.5462 O.3     1  UNL1       -0.2928
     23 C         143.2146  135.0814  156.9917 C.3     1  UNL1        0.1515
     24 C         143.7021  133.7487  157.4776 C.3     1  UNL1        0.0352
     25 O         138.5178  138.6598  164.0933 O.3     1  UNL1       -0.4360
     26 C         138.8915  139.0674  165.4876 C.ar    1  UNL1        0.2297
     27 C         137.8931  138.9383  166.5997 C.ar    1  UNL1        0.0583
     28 C         138.2667  139.3459  167.9941 C.ar    1  UNL1        0.0109
     29 C         139.6387  139.8827  168.2764 C.ar    1  UNL1        0.0729
     30 C         140.6370  140.0118  167.1643 C.ar    1  UNL1        0.1065
     31 N         140.2634  139.6042  165.7699 N.ar    1  UNL1       -0.2097
     32 C         140.0124  140.2903  169.6707 C.2     1  UNL1        0.2505
     33 O         139.3897  139.5982  170.8467 O.2     1  UNL1       -0.2699
     34 N         141.0088  141.3901  169.8890 N.am    1  UNL1       -0.2759
     35 C         141.8151  142.2840  168.9940 C.3     1  UNL1        0.0955
     36 C         142.4179  142.9455  170.1978 C.3     1  UNL1        0.0430
     37 C         141.6117  142.0516  171.0927 C.3     1  UNL1        0.0955
     38 O         137.5621  143.4524  162.3277 O.3     1  UNL1       -0.4791
     39 C         138.2816  144.3749  163.2665 C.3     1  UNL1        0.1661
     40 C         139.3325  145.3082  162.7424 C.3     1  UNL1        0.0472
     41 C         137.9503  144.3641  164.7295 C.3     1  UNL1        0.0472
@<TRIPOS>BOND
     1    20    21    1
     2    21    19    1
     3    19    17    1
     4    17    18    2
     5    17    16    1
     6    16    11    1
     7    11    12   ar
     8    12    13   ar
     9    13    14   ar
    10    14     7    1
    11     7     8   am
    12     8     9    2
    13     8     1    1
    14     1     2   ar
    15     2     3   ar
    16     3    25    1
    17    25    26    1
    18    26    27   ar
    19    27    28   ar
    20    28    29   ar
    21    29    32    1
    22    32    33    2
    23    32    34   am
    24    34    35    1
    25    35    36    1
    26    36    37    1
    27    29    30   ar
    28    30    31   ar
    29     3     4   ar
    30     4     5   ar
    31     5    38    1
    32    38    39    1
    33    39    40    1
    34    39    41    1
    35     5     6   ar
    36    14    15   ar
    37    17    22    1
    38    22    23    1
    39    23    24    1
    40    15    11   ar
    41     6     1   ar
    42    31    26   ar
    43    37    34    1
    44     7    10    1
@<TRIPOS>MOLECULE
*****
 41 44 0 0 0
SMALL
GASTEIGER

@<TRIPOS>ATOM
      1 C         140.0161  138.9741  160.1531 C.ar    1  UNL1        0.0597
      2 C         140.3560  138.2195  161.4040 C.ar    1  UNL1        0.0423
      3 C         139.9701  138.7746  162.7430 C.ar    1  UNL1        0.1504
      4 C         139.2442  140.0843  162.8310 C.ar    1  UNL1        0.0744
      5 C         138.9042  140.8389  161.5801 C.ar    1  UNL1        0.1416
      6 C         139.2901  140.2838  160.2411 C.ar    1  UNL1        0.0416
      7 N         139.3665  138.2628  157.7402 N.am    1  UNL1       -0.2644
      8 C         140.4020  138.4190  158.8140 C.2     1  UNL1        0.2508
      9 O         141.8235  138.0203  158.5489 O.2     1  UNL1       -0.2698
     10 H         138.4335  138.5245  157.9142 H       1  UNL1        0.1566
     11 N         140.6644  136.2635  154.6769 N.ar    1  UNL1       -0.2357
     12 C         140.0282  137.4437  154.0042 C.ar    1  UNL1        0.0988
     13 C         139.4645  138.3363  155.0700 C.ar    1  UNL1        0.0565
     14 C         139.7524  137.7077  156.4011 C.ar    1  UNL1        0.1557
     15 N         140.4940  136.4267  156.1582 N.ar    1  UNL1       -0.1534
     16 C         141.3506  135.1208  153.9889 C.3     1  UNL1        0.2423
     17 P         142.2543  134.2106  154.7667 P.3     1  UNL1        0.3677
     18 O         143.1579  133.3004  155.5444 O.2     1  UNL1       -0.2557
     19 O         143.4182  135.1068  154.4632 O.3     1  UNL1       -0.2928
     20 C         144.4078  137.3259  155.3832 C.3     1  UNL1        0.0352
     21 C         144.0827  135.8733  155.5682 C.3     1  UNL1        0.1515
     22 O         141.0903  133.3144  155.0701 O.3     1  UNL1       -0.2928
     23 C         141.2800  131.8271  155.1126 C.3     1  UNL1        0.1515
     24 C         140.3120  130.9270  154.4036 C.3     1  UNL1        0.0352
     25 O         140.3101  138.0200  163.9941 O.3     1  UNL1       -0.4360
     26 C         140.0759  138.6482  165.3359 C.ar    1  UNL1        0.2297
     27 C         138.6958  138.6702  165.9231 C.ar    1  UNL1        0.0583
     28 C         138.4616  139.2984  167.2650 C.ar    1  UNL1        0.0109
     29 C         139.6076  139.9047  168.0195 C.ar    1  UNL1        0.0729
     30 C         140.9876  139.8826  167.4323 C.ar    1  UNL1        0.1065
     31 N         141.2218  139.2544  166.0904 N.ar    1  UNL1       -0.2097
     32 C         139.3734  140.5329  169.3613 C.2     1  UNL1        0.2505
     33 O         138.7008  139.7494  170.4492 O.2     1  UNL1       -0.2699
     34 N         139.8120  141.9448  169.6152 N.am    1  UNL1       -0.2759
     35 C         140.4922  143.0065  168.8029 C.3     1  UNL1        0.0955
     36 C         140.4321  143.9414  169.9744 C.3     1  UNL1        0.0430
     37 C         139.7518  142.8797  170.7867 C.3     1  UNL1        0.0955
     38 O         138.1782  142.1486  161.6681 O.3     1  UNL1       -0.4791
     39 C         138.6721  143.2189  162.5956 C.3     1  UNL1        0.1661
     40 C         137.9995  143.4335  163.9191 C.3     1  UNL1        0.0472
     41 C         139.8386  144.0749  162.1997 C.3     1  UNL1        0.0472
@<TRIPOS>BOND
     1    20    21    1
     2    21    19    1
     3    19    17    1
     4    17    18    2
     5    17    16    1
     6    16    11    1
     7    11    12   ar
     8    12    13   ar
     9    13    14   ar
    10    14     7    1
    11     7     8   am
    12     8     9    2
    13     8     1    1
    14     1     2   ar
    15     2     3   ar
    16     3    25    1
    17    25    26    1
    18    26    27   ar
    19    27    28   ar
    20    28    29   ar
    21    29    32    1
    22    32    33    2
    23    32    34   am
    24    34    35    1
    25    35    36    1
    26    36    37    1
    27    29    30   ar
    28    30    31   ar
    29     3     4   ar
    30     4     5   ar
    31     5    38    1
    32    38    39    1
    33    39    40    1
    34    39    41    1
    35     5     6   ar
    36    14    15   ar
    37    17    22    1
    38    22    23    1
    39    23    24    1
    40    15    11   ar
    41     6     1   ar
    42    31    26   ar
    43    37    34    1
    44     7    10    1
@<TRIPOS>MOLECULE
*****
 41 44 0 0 0
SMALL
GASTEIGER

@<TRIPOS>ATOM
      1 C         142.2784  138.6834  158.8115 C.ar    1  UNL1        0.0597
      2 C         140.8801  138.7205  159.3529 C.ar    1  UNL1        0.0423
      3 C         140.5600  139.5719  160.5456 C.ar    1  UNL1        0.1504
      4 C         141.6383  140.3862  161.1969 C.ar    1  UNL1        0.0744
      5 C         143.0367  140.3492  160.6554 C.ar    1  UNL1        0.1416
      6 C         143.3567  139.4978  159.4627 C.ar    1  UNL1        0.0416
      7 N         141.6921  136.6978  157.2418 N.am    1  UNL1       -0.2644
      8 C         142.5986  137.8319  157.6187 C.2     1  UNL1        0.2508
      9 O         143.8251  138.1147  156.8029 O.2     1  UNL1       -0.2698
     10 H         140.8871  136.5122  157.7773 H       1  UNL1        0.1566
     11 N         142.5858  133.9398  154.6611 N.ar    1  UNL1       -0.2357
     12 C         142.4239  135.1326  153.7661 C.ar    1  UNL1        0.0988
     13 C         142.0694  136.3110  154.6240 C.ar    1  UNL1        0.0565
     14 C         142.0123  135.8464  156.0490 C.ar    1  UNL1        0.1557
     15 N         142.3314  134.3809  156.0720 N.ar    1  UNL1       -0.1534
     16 C         142.9399  132.5499  154.2222 C.3     1  UNL1        0.2423
     17 P         142.8722  131.4144  155.1999 P.3     1  UNL1        0.3677
     18 O         142.8045  130.2789  156.1777 O.2     1  UNL1       -0.2557
     19 O         141.4267  131.2058  154.8577 O.3     1  UNL1       -0.2928
     20 C         141.6396  129.3790  153.0227 C.3     1  UNL1        0.0352
     21 C         141.0451  130.6667  153.5110 C.3     1  UNL1        0.1515
     22 O         144.3177  131.6230  155.5422 O.3     1  UNL1       -0.2928
     23 C         144.8238  131.2675  156.9088 C.3     1  UNL1        0.1515
     24 C         145.2044  132.3516  157.8730 C.3     1  UNL1        0.0352
     25 O         139.1616  139.6090  161.0871 O.3     1  UNL1       -0.4360
     26 C         138.9248  139.4744  162.5622 C.ar    1  UNL1        0.2297
     27 C         139.2087  138.1728  163.2517 C.ar    1  UNL1        0.0583
     28 C         138.9718  138.0382  164.7268 C.ar    1  UNL1        0.0109
     29 C         138.4511  139.2052  165.5123 C.ar    1  UNL1        0.0729
     30 C         138.1672  140.5067  164.8228 C.ar    1  UNL1        0.1065
     31 N         138.4041  140.6413  163.3477 N.ar    1  UNL1       -0.2097
     32 C         138.2142  139.0706  166.9874 C.2     1  UNL1        0.2505
     33 O         137.1622  138.1298  167.4953 O.2     1  UNL1       -0.2699
     34 N         139.0295  139.8769  167.9545 N.am    1  UNL1       -0.2759
     35 C         140.1322  140.8860  167.8289 C.3     1  UNL1        0.0955
     36 C         140.1824  141.0170  169.3223 C.3     1  UNL1        0.0430
     37 C         139.0797  140.0079  169.4479 C.3     1  UNL1        0.0955
     38 O         144.1149  141.1635  161.3067 O.3     1  UNL1       -0.4791
     39 C         144.6929  140.7289  162.6208 C.3     1  UNL1        0.1661
     40 C         145.6151  141.6417  163.3732 C.3     1  UNL1        0.0472
     41 C         144.3485  139.3813  163.1826 C.3     1  UNL1        0.0472
@<TRIPOS>BOND
     1    20    21    1
     2    21    19    1
     3    19    17    1
     4    17    18    2
     5    17    16    1
     6    16    11    1
     7    11    12   ar
     8    12    13   ar
     9    13    14   ar
    10    14     7    1
    11     7     8   am
    12     8     9    2
    13     8     1    1
    14     1     2   ar
    15     2     3   ar
    16     3    25    1
    17    25    26    1
    18    26    27   ar
    19    27    28   ar
    20    28    29   ar
    21    29    32    1
    22    32    33    2
    23    32    34   am
    24    34    35    1
    25    35    36    1
    26    36    37    1
    27    29    30   ar
    28    30    31   ar
    29     3     4   ar
    30     4     5   ar
    31     5    38    1
    32    38    39    1
    33    39    40    1
    34    39    41    1
    35     5     6   ar
    36    14    15   ar
    37    17    22    1
    38    22    23    1
    39    23    24    1
    40    15    11   ar
    41     6     1   ar
    42    31    26   ar
    43    37    34    1
    44     7    10    1
@<TRIPOS>MOLECULE
*****
 41 44 0 0 0
SMALL
GASTEIGER

@<TRIPOS>ATOM
      1 C         142.0142  138.3933  158.5198 C.ar    1  UNL1        0.0597
      2 C         140.6381  138.4255  159.1157 C.ar    1  UNL1        0.0423
      3 C         140.3293  139.3702  160.2392 C.ar    1  UNL1        0.1504
      4 C         141.3966  140.2826  160.7667 C.ar    1  UNL1        0.0744
      5 C         142.7727  140.2504  160.1708 C.ar    1  UNL1        0.1416
      6 C         143.0815  139.3057  159.0473 C.ar    1  UNL1        0.0416
      7 N         141.2494  136.5533  156.8526 N.am    1  UNL1       -0.2644
      8 C         142.3231  137.4486  157.3963 C.2     1  UNL1        0.2508
      9 O         143.7057  137.3992  156.8166 O.2     1  UNL1       -0.2698
     10 H         140.3420  136.5857  157.2331 H       1  UNL1        0.1566
     11 N         142.2577  133.6387  154.4959 N.ar    1  UNL1       -0.2357
     12 C         141.8094  134.6713  153.5044 C.ar    1  UNL1        0.0988
     13 C         141.3772  135.8888  154.2666 C.ar    1  UNL1        0.0565
     14 C         141.5583  135.6086  155.7290 C.ar    1  UNL1        0.1557
     15 N         142.1025  134.2180  155.8707 N.ar    1  UNL1       -0.1534
     16 C         142.7711  132.2676  154.1697 C.3     1  UNL1        0.2423
     17 P         142.7279  131.1843  155.2063 P.3     1  UNL1        0.3677
     18 O         142.6847  130.1010  156.2429 O.2     1  UNL1       -0.2557
     19 O         144.2242  131.2197  155.3058 O.3     1  UNL1       -0.2928
     20 C         145.1449  131.6880  157.6896 C.3     1  UNL1        0.0352
     21 C         144.8892  132.1428  156.2833 C.3     1  UNL1        0.1515
     22 O         141.2316  131.1489  155.1068 O.3     1  UNL1       -0.2928
     23 C         140.5609  130.1124  154.2547 C.3     1  UNL1        0.1515
     24 C         139.7653  129.0144  154.8961 C.3     1  UNL1        0.0352
     25 O         138.9531  139.4025  160.8352 O.3     1  UNL1       -0.4360
     26 C         138.7776  139.3150  162.3223 C.ar    1  UNL1        0.2297
     27 C         139.1248  138.0473  163.0452 C.ar    1  UNL1        0.0583
     28 C         138.9493  137.9598  164.5323 C.ar    1  UNL1        0.0109
     29 C         138.4266  139.1400  165.2965 C.ar    1  UNL1        0.0729
     30 C         138.0794  140.4076  164.5737 C.ar    1  UNL1        0.1065
     31 N         138.2549  140.4951  163.0865 N.ar    1  UNL1       -0.2097
     32 C         138.2511  139.0525  166.7837 C.2     1  UNL1        0.2505
     33 O         137.1993  138.1536  167.3632 O.2     1  UNL1       -0.2699
     34 N         139.1274  139.8638  167.6913 N.am    1  UNL1       -0.2759
     35 C         140.2481  140.8402  167.4895 C.3     1  UNL1        0.0955
     36 C         140.3667  141.0112  168.9750 C.3     1  UNL1        0.0430
     37 C         139.2460  140.0348  169.1768 C.3     1  UNL1        0.0955
     38 O         143.8401  141.1628  160.6983 O.3     1  UNL1       -0.4791
     39 C         144.4816  140.8788  162.0241 C.3     1  UNL1        0.1661
     40 C         144.3468  139.5210  162.6470 C.3     1  UNL1        0.0472
     41 C         145.2581  141.9527  162.7270 C.3     1  UNL1        0.0472
@<TRIPOS>BOND
     1    20    21    1
     2    21    19    1
     3    19    17    1
     4    17    18    2
     5    17    16    1
     6    16    11    1
     7    11    12   ar
     8    12    13   ar
     9    13    14   ar
    10    14     7    1
    11     7     8   am
    12     8     9    2
    13     8     1    1
    14     1     2   ar
    15     2     3   ar
    16     3    25    1
    17    25    26    1
    18    26    27   ar
    19    27    28   ar
    20    28    29   ar
    21    29    32    1
    22    32    33    2
    23    32    34   am
    24    34    35    1
    25    35    36    1
    26    36    37    1
    27    29    30   ar
    28    30    31   ar
    29     3     4   ar
    30     4     5   ar
    31     5    38    1
    32    38    39    1
    33    39    40    1
    34    39    41    1
    35     5     6   ar
    36    14    15   ar
    37    17    22    1
    38    22    23    1
    39    23    24    1
    40    15    11   ar
    41     6     1   ar
    42    31    26   ar
    43    37    34    1
    44     7    10    1
@<TRIPOS>MOLECULE
*****
 41 44 0 0 0
SMALL
GASTEIGER

@<TRIPOS>ATOM
      1 C         144.7333  142.1078  158.6945 C.ar    1  UNL1        0.0597
      2 C         143.8613  141.1534  157.9337 C.ar    1  UNL1        0.0423
      3 C         144.1648  140.8418  156.4982 C.ar    1  UNL1        0.1504
      4 C         145.3402  141.4845  155.8234 C.ar    1  UNL1        0.0744
      5 C         146.2122  142.4389  156.5842 C.ar    1  UNL1        0.1416
      6 C         145.9087  142.7505  158.0197 C.ar    1  UNL1        0.0416
      7 N         143.3588  143.4123  160.4718 N.am    1  UNL1       -0.2644
      8 C         144.4299  142.4194  160.1301 C.2     1  UNL1        0.2508
      9 O         145.1977  141.7382  161.2239 O.2     1  UNL1       -0.2698
     10 H         142.8549  143.8595  159.7539 H       1  UNL1        0.1566
     11 N         142.0100  143.7267  164.0977 N.ar    1  UNL1       -0.2357
     12 C         143.1672  144.6805  164.1353 C.ar    1  UNL1        0.0988
     13 C         143.8133  144.6788  162.7815 C.ar    1  UNL1        0.0565
     14 C         143.0554  143.7240  161.9074 C.ar    1  UNL1        0.1557
     15 N         141.9409  143.1356  162.7209 N.ar    1  UNL1       -0.1534
     16 C         141.0844  143.4183  165.2370 C.3     1  UNL1        0.2423
     17 P         139.6739  142.9882  164.9622 P.3     1  UNL1        0.3677
     18 O         138.2634  142.5581  164.6874 O.2     1  UNL1       -0.2557
     19 O         140.0534  141.5643  165.2427 O.3     1  UNL1       -0.2928
     20 C         138.9455  139.4830  166.3339 C.3     1  UNL1        0.0352
     21 C         139.5090  140.8679  166.4546 C.3     1  UNL1        0.1515
     22 O         139.2945  144.4121  164.6818 O.3     1  UNL1       -0.2928
     23 C         138.6982  144.7822  163.3560 C.3     1  UNL1        0.1515
     24 C         139.4790  145.6246  162.3914 C.3     1  UNL1        0.0352
     25 O         143.2928  139.8874  155.7373 O.3     1  UNL1       -0.4360
     26 C         143.3468  138.4190  156.0388 C.ar    1  UNL1        0.2297
     27 C         144.1765  137.5078  155.1835 C.ar    1  UNL1        0.0583
     28 C         144.2305  136.0394  155.4850 C.ar    1  UNL1        0.0109
     29 C         143.4548  135.4822  156.6416 C.ar    1  UNL1        0.0729
     30 C         142.6252  136.3933  157.4968 C.ar    1  UNL1        0.1065
     31 N         142.5712  137.8618  157.1954 N.ar    1  UNL1       -0.2097
     32 C         143.5089  134.0138  156.9431 C.2     1  UNL1        0.2505
     33 O         144.4475  133.4977  157.9931 O.2     1  UNL1       -0.2699
     34 N         142.6241  133.0614  156.1945 N.am    1  UNL1       -0.2759
     35 C         141.5932  133.1981  155.1135 C.3     1  UNL1        0.0955
     36 C         141.3730  131.7145  155.1359 C.3     1  UNL1        0.0430
     37 C         142.4038  131.5778  156.2169 C.3     1  UNL1        0.0955
     38 O         147.3876  143.0816  155.9094 O.3     1  UNL1       -0.4791
     39 C         148.2121  142.2978  154.9319 C.3     1  UNL1        0.1661
     40 C         147.8109  142.2416  153.4876 C.3     1  UNL1        0.0472
     41 C         149.4380  141.5701  155.3986 C.3     1  UNL1        0.0472
@<TRIPOS>BOND
     1    20    21    1
     2    21    19    1
     3    19    17    1
     4    17    18    2
     5    17    16    1
     6    16    11    1
     7    11    12   ar
     8    12    13   ar
     9    13    14   ar
    10    14     7    1
    11     7     8   am
    12     8     9    2
    13     8     1    1
    14     1     2   ar
    15     2     3   ar
    16     3    25    1
    17    25    26    1
    18    26    27   ar
    19    27    28   ar
    20    28    29   ar
    21    29    32    1
    22    32    33    2
    23    32    34   am
    24    34    35    1
    25    35    36    1
    26    36    37    1
    27    29    30   ar
    28    30    31   ar
    29     3     4   ar
    30     4     5   ar
    31     5    38    1
    32    38    39    1
    33    39    40    1
    34    39    41    1
    35     5     6   ar
    36    14    15   ar
    37    17    22    1
    38    22    23    1
    39    23    24    1
    40    15    11   ar
    41     6     1   ar
    42    31    26   ar
    43    37    34    1
    44     7    10    1
@<TRIPOS>MOLECULE
*****
 41 44 0 0 0
SMALL
GASTEIGER

@<TRIPOS>ATOM
      1 C         141.1008  138.2859  159.8038 C.ar    1  UNL1        0.0597
      2 C         142.2811  137.6846  159.1002 C.ar    1  UNL1        0.0423
      3 C         142.2727  137.5449  157.6068 C.ar    1  UNL1        0.1504
      4 C         141.0839  138.0065  156.8170 C.ar    1  UNL1        0.0744
      5 C         139.9035  138.6077  157.5207 C.ar    1  UNL1        0.1416
      6 C         139.9120  138.7474  159.0141 C.ar    1  UNL1        0.0416
      7 N         141.9197  139.5091  161.9447 N.am    1  UNL1       -0.2644
      8 C         141.1092  138.4256  161.2974 C.2     1  UNL1        0.2508
      9 O         140.3071  137.4818  162.1434 O.2     1  UNL1       -0.2698
     10 H         142.4462  140.1285  161.3894 H       1  UNL1        0.1566
     11 N         141.4364  140.4164  165.6875 N.ar    1  UNL1       -0.2357
     12 C         142.4458  139.3111  165.7853 C.ar    1  UNL1        0.0988
     13 C         142.7497  138.8367  164.3950 C.ar    1  UNL1        0.0565
     14 C         141.9281  139.6488  163.4382 C.ar    1  UNL1        0.1557
     15 N         141.1165  140.6251  164.2370 N.ar    1  UNL1       -0.1534
     16 C         140.8499  141.1790  166.8383 C.3     1  UNL1        0.2423
     17 P         139.9810  140.4763  167.8389 P.3     1  UNL1        0.3677
     18 O         139.1121  139.7736  168.8394 O.2     1  UNL1       -0.2557
     19 O         140.9896  140.7582  168.9128 O.3     1  UNL1       -0.2928
     20 C         142.4832  138.9075  169.9587 C.3     1  UNL1        0.0352
     21 C         141.2398  139.7459  169.9910 C.3     1  UNL1        0.1515
     22 O         138.9724  140.1944  166.7649 O.3     1  UNL1       -0.2928
     23 C         138.3841  138.8212  166.6302 C.3     1  UNL1        0.1515
     24 C         138.6857  137.9917  165.4174 C.3     1  UNL1        0.0352
     25 O         143.4531  136.9436  156.9030 O.3     1  UNL1       -0.4360
     26 C         143.3896  135.5297  156.4060 C.ar    1  UNL1        0.2297
     27 C         143.6692  134.3921  157.3429 C.ar    1  UNL1        0.0583
     28 C         143.6057  132.9783  156.8459 C.ar    1  UNL1        0.0109
     29 C         143.2626  132.7021  155.4119 C.ar    1  UNL1        0.0729
     30 C         142.9830  133.8396  154.4751 C.ar    1  UNL1        0.1065
     31 N         143.0465  135.2535  154.9721 N.ar    1  UNL1       -0.2097
     32 C         143.1991  131.2882  154.9149 C.2     1  UNL1        0.2505
     33 O         144.4627  130.5025  154.7250 O.2     1  UNL1       -0.2699
     34 N         141.8720  130.6601  154.6078 N.am    1  UNL1       -0.2759
     35 C         140.4437  131.1138  154.6710 C.3     1  UNL1        0.0955
     36 C         139.9953  129.7717  154.1734 C.3     1  UNL1        0.0430
     37 C         141.4236  129.3179  154.1102 C.3     1  UNL1        0.0955
     38 O         138.7148  139.0693  156.7309 O.3     1  UNL1       -0.4791
     39 C         138.6820  138.8774  155.2436 C.3     1  UNL1        0.1661
     40 C         138.1377  137.6058  154.6633 C.3     1  UNL1        0.0472
     41 C         139.1935  139.9572  154.3366 C.3     1  UNL1        0.0472
@<TRIPOS>BOND
     1    20    21    1
     2    21    19    1
     3    19    17    1
     4    17    18    2
     5    17    16    1
     6    16    11    1
     7    11    12   ar
     8    12    13   ar
     9    13    14   ar
    10    14     7    1
    11     7     8   am
    12     8     9    2
    13     8     1    1
    14     1     2   ar
    15     2     3   ar
    16     3    25    1
    17    25    26    1
    18    26    27   ar
    19    27    28   ar
    20    28    29   ar
    21    29    32    1
    22    32    33    2
    23    32    34   am
    24    34    35    1
    25    35    36    1
    26    36    37    1
    27    29    30   ar
    28    30    31   ar
    29     3     4   ar
    30     4     5   ar
    31     5    38    1
    32    38    39    1
    33    39    40    1
    34    39    41    1
    35     5     6   ar
    36    14    15   ar
    37    17    22    1
    38    22    23    1
    39    23    24    1
    40    15    11   ar
    41     6     1   ar
    42    31    26   ar
    43    37    34    1
    44     7    10    1
@<TRIPOS>MOLECULE
*****
 41 44 0 0 0
SMALL
GASTEIGER

@<TRIPOS>ATOM
      1 C         140.8978  139.6481  160.3294 C.ar    1  UNL1        0.0597
      2 C         140.0310  139.1186  161.4331 C.ar    1  UNL1        0.0423
      3 C         139.1902  140.0600  162.2435 C.ar    1  UNL1        0.1504
      4 C         139.2161  141.5308  161.9501 C.ar    1  UNL1        0.0744
      5 C         140.0829  142.0602  160.8464 C.ar    1  UNL1        0.1416
      6 C         140.9238  141.1189  160.0360 C.ar    1  UNL1        0.0416
      7 N         141.6134  138.6864  158.0243 N.am    1  UNL1       -0.2644
      8 C         141.7387  138.7067  159.5189 C.2     1  UNL1        0.2508
      9 O         142.7049  137.7856  160.2031 O.2     1  UNL1       -0.2698
     10 H         140.9793  139.2909  157.5753 H       1  UNL1        0.1566
     11 N         143.4259  135.7129  156.3100 N.ar    1  UNL1       -0.2357
     12 C         144.0709  136.8802  155.6234 C.ar    1  UNL1        0.0988
     13 C         143.4704  138.1362  156.1820 C.ar    1  UNL1        0.0565
     14 C         142.4544  137.7450  157.2139 C.ar    1  UNL1        0.1557
     15 N         142.4269  136.2474  157.2930 N.ar    1  UNL1       -0.1534
     16 C         143.7271  134.2653  156.0580 C.3     1  UNL1        0.2423
     17 P         142.6263  133.3291  155.6556 P.3     1  UNL1        0.3677
     18 O         141.5256  132.3929  155.2534 O.2     1  UNL1       -0.2557
     19 O         142.5845  133.9623  154.2965 O.3     1  UNL1       -0.2928
     20 C         140.8869  135.8529  153.7549 C.3     1  UNL1        0.0352
     21 C         141.2744  134.4044  153.7151 C.3     1  UNL1        0.1515
     22 O         142.6682  132.6959  157.0149 O.3     1  UNL1       -0.2928
     23 C         143.1509  131.2841  157.1700 C.3     1  UNL1        0.1515
     24 C         144.5615  131.0173  157.6047 C.3     1  UNL1        0.0352
     25 O         138.3233  139.5305  163.3473 O.3     1  UNL1       -0.4360
     26 C         138.7427  139.7007  164.7774 C.ar    1  UNL1        0.2297
     27 C         138.0000  138.9854  165.8669 C.ar    1  UNL1        0.0583
     28 C         138.4194  139.1555  167.2970 C.ar    1  UNL1        0.0109
     29 C         139.5814  140.0409  167.6376 C.ar    1  UNL1        0.0729
     30 C         140.3239  140.7561  166.5482 C.ar    1  UNL1        0.1065
     31 N         139.9046  140.5860  165.1180 N.ar    1  UNL1       -0.2097
     32 C         140.0007  140.2111  169.0677 C.2     1  UNL1        0.2505
     33 O         139.0382  139.8959  170.1741 O.2     1  UNL1       -0.2699
     34 N         141.3827  140.6964  169.3914 N.am    1  UNL1       -0.2759
     35 C         142.5816  141.0988  168.5848 C.3     1  UNL1        0.0955
     36 C         143.3370  141.3828  169.8493 C.3     1  UNL1        0.0430
     37 C         142.1380  140.9804  170.6559 C.3     1  UNL1        0.0955
     38 O         140.1089  143.5310  160.5530 O.3     1  UNL1       -0.4791
     39 C         140.6306  144.4916  161.5802 C.3     1  UNL1        0.1661
     40 C         142.0654  144.4218  162.0119 C.3     1  UNL1        0.0472
     41 C         139.7174  145.5220  162.1757 C.3     1  UNL1        0.0472
@<TRIPOS>BOND
     1    20    21    1
     2    21    19    1
     3    19    17    1
     4    17    18    2
     5    17    16    1
     6    16    11    1
     7    11    12   ar
     8    12    13   ar
     9    13    14   ar
    10    14     7    1
    11     7     8   am
    12     8     9    2
    13     8     1    1
    14     1     2   ar
    15     2     3   ar
    16     3    25    1
    17    25    26    1
    18    26    27   ar
    19    27    28   ar
    20    28    29   ar
    21    29    32    1
    22    32    33    2
    23    32    34   am
    24    34    35    1
    25    35    36    1
    26    36    37    1
    27    29    30   ar
    28    30    31   ar
    29     3     4   ar
    30     4     5   ar
    31     5    38    1
    32    38    39    1
    33    39    40    1
    34    39    41    1
    35     5     6   ar
    36    14    15   ar
    37    17    22    1
    38    22    23    1
    39    23    24    1
    40    15    11   ar
    41     6     1   ar
    42    31    26   ar
    43    37    34    1
    44     7    10    1
