@<TRIPOS>MOLECULE
*****
 41 45 0 0 0
SMALL
GASTEIGER

@<TRIPOS>ATOM
      1 C         142.5273  141.6446  163.7260 C.2     1  UNL1        0.2457
      2 O         142.8707  142.2109  165.0718 O.2     1  UNL1       -0.2730
      3 N         141.3850  140.6825  163.5864 N.am    1  UNL1       -0.2560
      4 C         140.9264  140.0373  162.3122 C.3     1  UNL1        0.1038
      5 C         139.7588  139.1527  162.6347 C.3     1  UNL1        0.0553
      6 C         139.7786  138.8564  161.1644 C.3     1  UNL1        0.0077
      7 C         138.5952  138.2062  162.6499 C.3     1  UNL1        0.0077
      8 C         139.4957  139.2512  164.1082 C.ar    1  UNL1        0.0731
      9 N         138.4708  138.6020  164.9903 N.ar    1  UNL1       -0.2505
     10 CA        138.4510  138.8984  166.4606 C.ar    1  UNL1        0.0845
     11 C         139.4561  139.8438  167.0488 C.ar    1  UNL1       -0.0005
     12 C         140.4810  140.4929  166.1666 C.ar    1  UNL1        0.0134
     13 C         140.5008  140.1966  164.6964 C.ar    1  UNL1        0.0671
     14 C         137.4261  138.2492  167.3428 C.3     1  UNL1        0.1825
     15 O         137.2232  136.7640  167.2895 O.3     1  UNL1       -0.3760
     16 H         136.8694  136.5170  166.4207 H       1  UNL1        0.2110
     17 C         143.3263  142.0404  162.5197 C.3     1  UNL1        0.1591
     18 C         140.0445  145.8996  161.3635 C.3     1  UNL1        0.0186
     19 C         141.1109  144.9317  160.9441 C.3     1  UNL1        0.0703
     20 C         141.6854  143.9700  161.9416 C.3     1  UNL1        0.0884
     21 N         142.7518  143.0022  161.5222 N.3     1  UNL1       -0.2626
     22 C         143.2439  142.9960  160.1052 C.3     1  UNL1        0.0898
     23 C         142.6695  143.9577  159.1077 C.3     1  UNL1        0.0861
     24 N         141.6030  144.9255  159.5271 N.3     1  UNL1       -0.2963
     25 H         140.7924  144.7454  158.9347 H       1  UNL1        0.1233
     26 C         144.3104  142.0281  159.6858 C.3     1  UNL1        0.0897
     27 N         143.9666  140.8752  158.7900 N.3     1  UNL1       -0.2684
     28 C         143.1789  139.7170  159.3268 C.3     1  UNL1        0.1046
     29 C         142.8352  138.5642  158.4309 C.3     1  UNL1        0.1595
     30 O         143.2791  138.5694  156.9981 O.3     1  UNL1       -0.3509
     31 C         144.0668  139.7275  156.4612 C.3     1  UNL1        0.1580
     32 C         144.4105  140.8804  157.3572 C.3     1  UNL1        0.0874
     33 C         145.1983  142.0386  156.8203 C.3     1  UNL1        0.0200
     34 C         139.4363  140.1401  168.5191 C.3     1  UNL1        0.0539
     35 C         140.4898  141.0223  169.1207 C.ar    1  UNL1       -0.0176
     36 C         140.2350  142.4916  169.2823 C.ar    1  UNL1       -0.0016
     37 C         141.2886  143.3738  169.8839 C.ar    1  UNL1        0.0293
     38 C         142.5968  142.7865  170.3239 C.ar    1  UNL1        0.1401
     39 F         143.6503  143.6687  170.9255 F       1  UNL1       -0.2042
     40 C         142.8516  141.3172  170.1623 C.ar    1  UNL1        0.0293
     41 C         141.7981  140.4351  169.5607 C.ar    1  UNL1       -0.0016
@<TRIPOS>BOND
     1    19    18    1
     2    19    20    1
     3    20    21    1
     4    21    17    1
     5    17     1    1
     6     1     2    2
     7     1     3   am
     8     3     4    1
     9     4     5    1
    10     5     6    1
    11     5     7    1
    12     5     8    1
    13     8     9   ar
    14     9    10   ar
    15    10    14    1
    16    14    15    1
    17    10    11   ar
    18    11    34    1
    19    34    35    1
    20    35    36   ar
    21    36    37   ar
    22    37    38   ar
    23    38    39    1
    24    38    40   ar
    25    40    41   ar
    26    11    12   ar
    27    12    13   ar
    28    21    22    1
    29    22    26    1
    30    26    27    1
    31    27    28    1
    32    28    29    1
    33    29    30    1
    34    30    31    1
    35    31    32    1
    36    32    33    1
    37    22    23    1
    38    23    24    1
    39    24    19    1
    40    13     3    1
    41    32    27    1
    42    13     8   ar
    43    41    35   ar
    44    15    16    1
    45    24    25    1
@<TRIPOS>MOLECULE
*****
 41 45 0 0 0
SMALL
GASTEIGER

@<TRIPOS>ATOM
      1 C         140.3110  143.7653  163.7036 C.2     1  UNL1        0.2457
      2 O         140.7475  144.0783  165.1041 O.2     1  UNL1       -0.2730
      3 N         139.6339  142.4611  163.4027 N.am    1  UNL1       -0.2560
      4 C         139.1445  142.0114  162.0580 C.3     1  UNL1        0.1038
      5 C         138.5355  140.6499  162.2180 C.3     1  UNL1        0.0553
      6 C         138.2841  140.7619  160.7434 C.3     1  UNL1        0.0077
      7 C         137.8740  139.3119  162.0697 C.3     1  UNL1        0.0077
      8 C         138.6486  140.2582  163.6615 C.ar    1  UNL1        0.0731
      9 N         138.2211  139.0269  164.4038 N.ar    1  UNL1       -0.2505
     10 CA        138.4725  138.9150  165.8784 C.ar    1  UNL1        0.0845
     11 C         139.1514  140.0343  166.6106 C.ar    1  UNL1       -0.0005
     12 C         139.5789  141.2657  165.8682 C.ar    1  UNL1        0.0134
     13 C         139.3275  141.3776  164.3937 C.ar    1  UNL1        0.0671
     14 C         138.0450  137.6836  166.6207 C.3     1  UNL1        0.1825
     15 O         136.7530  137.6779  167.3828 O.3     1  UNL1       -0.3760
     16 H         136.8116  138.3018  168.1232 H       1  UNL1        0.2110
     17 C         140.5516  144.7567  162.6038 C.3     1  UNL1        0.1591
     18 C         141.3485  144.7388  157.4692 C.3     1  UNL1        0.0186
     19 C         141.7899  144.3665  158.8536 C.3     1  UNL1        0.0703
     20 C         140.9501  144.7478  160.0365 C.3     1  UNL1        0.0884
     21 N         141.3915  144.3755  161.4209 N.3     1  UNL1       -0.2626
     22 C         142.6726  143.6219  161.6224 C.3     1  UNL1        0.0898
     23 C         143.5125  143.2407  160.4395 C.3     1  UNL1        0.0861
     24 N         143.0711  143.6130  159.0551 N.3     1  UNL1       -0.2963
     25 H         142.9870  142.7432  158.5290 H       1  UNL1        0.1233
     26 C         143.1140  143.2496  163.0068 C.3     1  UNL1        0.0897
     27 N         142.9795  141.8331  163.4813 N.3     1  UNL1       -0.2684
     28 C         142.5704  140.7559  162.5209 C.3     1  UNL1        0.1046
     29 C         142.4359  139.3394  162.9955 C.3     1  UNL1        0.1595
     30 O         142.7106  138.9999  164.4305 O.3     1  UNL1       -0.3509
     31 C         143.1197  140.0769  165.3910 C.3     1  UNL1        0.1580
     32 C         143.2542  141.4935  164.9163 C.3     1  UNL1        0.0874
     33 C         143.6634  142.5706  165.8768 C.3     1  UNL1        0.0200
     34 C         139.4028  139.9223  168.0851 C.3     1  UNL1        0.0539
     35 C         140.4111  140.8162  168.7441 C.ar    1  UNL1       -0.0176
     36 C         141.8553  140.4132  168.7882 C.ar    1  UNL1       -0.0016
     37 C         142.8636  141.3072  169.4472 C.ar    1  UNL1        0.0293
     38 C         142.4277  142.6041  170.0620 C.ar    1  UNL1        0.1401
     39 F         143.4360  143.4980  170.7209 F       1  UNL1       -0.2042
     40 C         140.9835  143.0071  170.0179 C.ar    1  UNL1        0.0293
     41 C         139.9752  142.1132  169.3589 C.ar    1  UNL1       -0.0016
@<TRIPOS>BOND
     1    19    18    1
     2    19    20    1
     3    20    21    1
     4    21    17    1
     5    17     1    1
     6     1     2    2
     7     1     3   am
     8     3     4    1
     9     4     5    1
    10     5     6    1
    11     5     7    1
    12     5     8    1
    13     8     9   ar
    14     9    10   ar
    15    10    14    1
    16    14    15    1
    17    10    11   ar
    18    11    34    1
    19    34    35    1
    20    35    36   ar
    21    36    37   ar
    22    37    38   ar
    23    38    39    1
    24    38    40   ar
    25    40    41   ar
    26    11    12   ar
    27    12    13   ar
    28    21    22    1
    29    22    26    1
    30    26    27    1
    31    27    28    1
    32    28    29    1
    33    29    30    1
    34    30    31    1
    35    31    32    1
    36    32    33    1
    37    22    23    1
    38    23    24    1
    39    24    19    1
    40    13     3    1
    41    32    27    1
    42    13     8   ar
    43    41    35   ar
    44    15    16    1
    45    24    25    1
@<TRIPOS>MOLECULE
*****
 41 45 0 0 0
SMALL
GASTEIGER

@<TRIPOS>ATOM
      1 C         142.6712  141.2602  163.5960 C.2     1  UNL1        0.2457
      2 O         142.9761  141.9320  164.9019 O.2     1  UNL1       -0.2730
      3 N         141.5170  140.3075  163.4940 N.am    1  UNL1       -0.2560
      4 C         141.0929  139.5650  162.2616 C.3     1  UNL1        0.1038
      5 C         139.8981  138.7287  162.6126 C.3     1  UNL1        0.0553
      6 C         139.9657  138.3098  161.1738 C.3     1  UNL1        0.0077
      7 C         138.7175  137.8049  162.6627 C.3     1  UNL1        0.0077
      8 C         139.5838  138.9545  164.0618 C.ar    1  UNL1        0.0731
      9 N         138.5158  138.3976  164.9557 N.ar    1  UNL1       -0.2505
     10 CA        138.4483  138.8165  166.3944 C.ar    1  UNL1        0.0845
     11 C         139.4488  139.7923  166.9392 C.ar    1  UNL1       -0.0005
     12 C         140.5168  140.3492  166.0453 C.ar    1  UNL1        0.0134
     13 C         140.5843  139.9303  164.6065 C.ar    1  UNL1        0.0671
     14 C         137.3802  138.2596  167.2884 C.3     1  UNL1        0.1825
     15 O         137.1424  136.7795  167.3407 O.3     1  UNL1       -0.3760
     16 H         136.8102  136.4749  166.4818 H       1  UNL1        0.2110
     17 C         143.5205  141.5410  162.3918 C.3     1  UNL1        0.1591
     18 C         142.8477  138.8245  158.0137 C.3     1  UNL1        0.0186
     19 C         142.5989  140.0600  158.8271 C.3     1  UNL1        0.0703
     20 C         143.1841  140.1827  160.2027 C.3     1  UNL1        0.0884
     21 N         142.9354  141.4183  161.0161 N.3     1  UNL1       -0.2626
     22 C         142.1014  142.5311  160.4539 C.3     1  UNL1        0.0898
     23 C         141.5163  142.4084  159.0782 C.3     1  UNL1        0.0861
     24 N         141.7650  141.1728  158.2648 N.3     1  UNL1       -0.2963
     25 H         142.2191  141.4744  157.4027 H       1  UNL1        0.1233
     26 C         141.8527  143.7666  161.2672 C.3     1  UNL1        0.0897
     27 N         140.6492  143.8479  162.1588 N.3     1  UNL1       -0.2684
     28 C         139.3772  143.1562  161.7668 C.3     1  UNL1        0.1046
     29 C         138.1737  143.2375  162.6584 C.3     1  UNL1        0.1595
     30 O         138.2421  144.0105  163.9421 O.3     1  UNL1       -0.3509
     31 C         139.5141  144.7023  164.3341 C.3     1  UNL1        0.1580
     32 C         140.7176  144.6209  163.4424 C.3     1  UNL1        0.0874
     33 C         141.9895  145.3127  163.8345 C.3     1  UNL1        0.0200
     34 C         139.3813  140.2112  168.3780 C.3     1  UNL1        0.0539
     35 C         140.4901  141.0263  168.9746 C.ar    1  UNL1       -0.0176
     36 C         140.3073  142.4998  169.1870 C.ar    1  UNL1       -0.0016
     37 C         141.4162  143.3149  169.7837 C.ar    1  UNL1        0.0293
     38 C         142.7079  142.6564  170.1680 C.ar    1  UNL1        0.1401
     39 F         143.8168  143.4715  170.7647 F       1  UNL1       -0.2042
     40 C         142.8908  141.1828  169.9557 C.ar    1  UNL1        0.0293
     41 C         141.7820  140.3677  169.3590 C.ar    1  UNL1       -0.0016
@<TRIPOS>BOND
     1    19    18    1
     2    19    20    1
     3    20    21    1
     4    21    17    1
     5    17     1    1
     6     1     2    2
     7     1     3   am
     8     3     4    1
     9     4     5    1
    10     5     6    1
    11     5     7    1
    12     5     8    1
    13     8     9   ar
    14     9    10   ar
    15    10    14    1
    16    14    15    1
    17    10    11   ar
    18    11    34    1
    19    34    35    1
    20    35    36   ar
    21    36    37   ar
    22    37    38   ar
    23    38    39    1
    24    38    40   ar
    25    40    41   ar
    26    11    12   ar
    27    12    13   ar
    28    21    22    1
    29    22    26    1
    30    26    27    1
    31    27    28    1
    32    28    29    1
    33    29    30    1
    34    30    31    1
    35    31    32    1
    36    32    33    1
    37    22    23    1
    38    23    24    1
    39    24    19    1
    40    13     3    1
    41    32    27    1
    42    13     8   ar
    43    41    35   ar
    44    15    16    1
    45    24    25    1
@<TRIPOS>MOLECULE
*****
 41 45 0 0 0
SMALL
GASTEIGER

@<TRIPOS>ATOM
      1 C         143.3232  138.4673  162.2672 C.2     1  UNL1        0.2457
      2 O         144.4365  137.8046  161.5114 O.2     1  UNL1       -0.2730
      3 N         142.0076  138.7231  161.5936 N.am    1  UNL1       -0.2560
      4 C         140.8088  139.3731  162.2185 C.3     1  UNL1        0.1038
      5 C         139.7201  139.4255  161.1879 C.3     1  UNL1        0.0553
      6 C         138.9321  140.0828  162.2821 C.3     1  UNL1        0.0077
      7 C         138.4667  139.6154  160.3861 C.3     1  UNL1        0.0077
      8 C         140.2461  138.8080  159.9262 C.ar    1  UNL1        0.0731
      9 N         139.6203  138.5849  158.5813 N.ar    1  UNL1       -0.2505
     10 CA        140.4083  137.9276  157.4873 C.ar    1  UNL1        0.0845
     11 C         141.8220  137.4935  157.7380 C.ar    1  UNL1       -0.0005
     12 C         142.4478  137.7166  159.0828 C.ar    1  UNL1        0.0134
     13 C         141.6598  138.3738  160.1769 C.ar    1  UNL1        0.0671
     14 C         139.7826  137.7045  156.1423 C.3     1  UNL1        0.1825
     15 O         138.5728  136.8270  156.0143 O.3     1  UNL1       -0.3760
     16 H         138.8112  135.9133  156.2361 H       1  UNL1        0.2110
     17 C         143.5255  138.8742  163.6968 C.3     1  UNL1        0.1591
     18 C         144.3420  143.8203  162.3296 C.3     1  UNL1        0.0186
     19 C         144.0033  142.8009  163.3766 C.3     1  UNL1        0.0703
     20 C         143.9338  141.3473  163.0132 C.3     1  UNL1        0.0884
     21 N         143.5951  140.3279  164.0602 N.3     1  UNL1       -0.2626
     22 C         143.3259  140.7620  165.4705 C.3     1  UNL1        0.0898
     23 C         143.3955  142.2157  165.8338 C.3     1  UNL1        0.0861
     24 N         143.7342  143.2351  164.7869 N.3     1  UNL1       -0.2963
     25 H         144.5702  143.7221  165.1097 H       1  UNL1        0.1233
     26 C         142.9872  139.7426  166.5174 C.3     1  UNL1        0.0897
     27 N         141.6347  139.7544  167.1658 N.3     1  UNL1       -0.2684
     28 C         140.4055  139.5096  166.3416 C.3     1  UNL1        0.1046
     29 C         139.0530  139.5214  166.9901 C.3     1  UNL1        0.1595
     30 O         138.9296  139.7780  168.4628 O.3     1  UNL1       -0.3509
     31 C         140.1587  140.0228  169.2871 C.3     1  UNL1        0.1580
     32 C         141.5112  140.0110  168.6386 C.3     1  UNL1        0.0874
     33 C         142.7403  140.2557  169.4629 C.3     1  UNL1        0.0200
     34 C         142.6100  136.8363  156.6438 C.3     1  UNL1        0.0539
     35 C         142.5874  135.3438  156.4958 C.ar    1  UNL1       -0.0176
     36 C         141.6999  134.7053  155.4688 C.ar    1  UNL1       -0.0016
     37 C         141.6772  133.2128  155.3208 C.ar    1  UNL1        0.0293
     38 C         142.5420  132.3587  156.1998 C.ar    1  UNL1        0.1401
     39 F         142.5194  130.8663  156.0518 F       1  UNL1       -0.2042
     40 C         143.4295  132.9972  157.2268 C.ar    1  UNL1        0.0293
     41 C         143.4522  134.4897  157.3748 C.ar    1  UNL1       -0.0016
@<TRIPOS>BOND
     1    19    18    1
     2    19    20    1
     3    20    21    1
     4    21    17    1
     5    17     1    1
     6     1     2    2
     7     1     3   am
     8     3     4    1
     9     4     5    1
    10     5     6    1
    11     5     7    1
    12     5     8    1
    13     8     9   ar
    14     9    10   ar
    15    10    14    1
    16    14    15    1
    17    10    11   ar
    18    11    34    1
    19    34    35    1
    20    35    36   ar
    21    36    37   ar
    22    37    38   ar
    23    38    39    1
    24    38    40   ar
    25    40    41   ar
    26    11    12   ar
    27    12    13   ar
    28    21    22    1
    29    22    26    1
    30    26    27    1
    31    27    28    1
    32    28    29    1
    33    29    30    1
    34    30    31    1
    35    31    32    1
    36    32    33    1
    37    22    23    1
    38    23    24    1
    39    24    19    1
    40    13     3    1
    41    32    27    1
    42    13     8   ar
    43    41    35   ar
    44    15    16    1
    45    24    25    1
@<TRIPOS>MOLECULE
*****
 41 45 0 0 0
SMALL
GASTEIGER

@<TRIPOS>ATOM
      1 C         140.0005  143.2140  162.9250 C.2     1  UNL1        0.2457
      2 O         140.3441  143.7588  164.2796 O.2     1  UNL1       -0.2730
      3 N         139.4349  141.8309  162.7942 N.am    1  UNL1       -0.2560
      4 C         139.0457  141.1550  161.5129 C.3     1  UNL1        0.1038
      5 C         138.5294  139.7873  161.8486 C.3     1  UNL1        0.0553
      6 C         138.3432  139.6655  160.3651 C.3     1  UNL1        0.0077
      7 C         137.9742  138.3941  161.8741 C.3     1  UNL1        0.0077
      8 C         138.5995  139.6178  163.3373 C.ar    1  UNL1        0.0731
      9 N         138.2260  138.4766  164.2363 N.ar    1  UNL1       -0.2505
     10 CA        138.4122  138.5984  165.7196 C.ar    1  UNL1        0.0845
     11 C         138.9718  139.8615  166.3041 C.ar    1  UNL1       -0.0005
     12 C         139.3453  141.0027  165.4051 C.ar    1  UNL1        0.0134
     13 C         139.1591  140.8808  163.9218 C.ar    1  UNL1        0.0671
     14 C         138.0388  137.4572  166.6187 C.3     1  UNL1        0.1825
     15 O         136.7540  137.5008  167.3916 O.3     1  UNL1       -0.3760
     16 H         136.7942  138.2161  168.0455 H       1  UNL1        0.2110
     17 C         140.2227  144.0523  161.7011 C.3     1  UNL1        0.1591
     18 C         145.1066  142.3823  161.1026 C.3     1  UNL1        0.0186
     19 C         143.8499  142.9576  160.5199 C.3     1  UNL1        0.0703
     20 C         142.6647  143.2173  161.4018 C.3     1  UNL1        0.0884
     21 N         141.4079  143.7927  160.8191 N.3     1  UNL1       -0.2626
     22 C         141.3363  144.1084  159.3545 C.3     1  UNL1        0.0898
     23 C         142.5216  143.8487  158.4726 C.3     1  UNL1        0.0861
     24 N         143.7783  143.2734  159.0553 N.3     1  UNL1       -0.2963
     25 H         144.5252  143.9403  158.8610 H       1  UNL1        0.1233
     26 C         140.0796  144.6837  158.7718 C.3     1  UNL1        0.0897
     27 N         139.3151  143.9174  157.7333 N.3     1  UNL1       -0.2684
     28 C         138.4951  142.7264  158.1323 C.3     1  UNL1        0.1046
     29 C         137.7307  141.9602  157.0938 C.3     1  UNL1        0.1595
     30 O         137.7862  142.3849  155.6563 O.3     1  UNL1       -0.3509
     31 C         138.6062  143.5759  155.2572 C.3     1  UNL1        0.1580
     32 C         139.3707  144.3421  156.2958 C.3     1  UNL1        0.0874
     33 C         140.1906  145.5331  155.8967 C.3     1  UNL1        0.0200
     34 C         139.1580  139.9833  167.7875 C.3     1  UNL1        0.0539
     35 C         140.3980  140.6234  168.3378 C.ar    1  UNL1       -0.0176
     36 C         140.3849  142.0720  168.7266 C.ar    1  UNL1       -0.0016
     37 C         141.6249  142.7121  169.2769 C.ar    1  UNL1        0.0293
     38 C         142.8779  141.9035  169.4382 C.ar    1  UNL1        0.1401
     39 F         144.1179  142.5436  169.9885 F       1  UNL1       -0.2042
     40 C         142.8910  140.4549  169.0494 C.ar    1  UNL1        0.0293
     41 C         141.6511  139.8148  168.4991 C.ar    1  UNL1       -0.0016
@<TRIPOS>BOND
     1    19    18    1
     2    19    20    1
     3    20    21    1
     4    21    17    1
     5    17     1    1
     6     1     2    2
     7     1     3   am
     8     3     4    1
     9     4     5    1
    10     5     6    1
    11     5     7    1
    12     5     8    1
    13     8     9   ar
    14     9    10   ar
    15    10    14    1
    16    14    15    1
    17    10    11   ar
    18    11    34    1
    19    34    35    1
    20    35    36   ar
    21    36    37   ar
    22    37    38   ar
    23    38    39    1
    24    38    40   ar
    25    40    41   ar
    26    11    12   ar
    27    12    13   ar
    28    21    22    1
    29    22    26    1
    30    26    27    1
    31    27    28    1
    32    28    29    1
    33    29    30    1
    34    30    31    1
    35    31    32    1
    36    32    33    1
    37    22    23    1
    38    23    24    1
    39    24    19    1
    40    13     3    1
    41    32    27    1
    42    13     8   ar
    43    41    35   ar
    44    15    16    1
    45    24    25    1
@<TRIPOS>MOLECULE
*****
 41 45 0 0 0
SMALL
GASTEIGER

@<TRIPOS>ATOM
      1 C         142.5454  139.4123  159.6110 C.2     1  UNL1        0.2457
      2 O         142.6123  138.2350  160.5379 O.2     1  UNL1       -0.2730
      3 N         142.2779  140.7832  160.1578 N.am    1  UNL1       -0.2560
      4 C         142.1831  142.0485  159.3578 C.3     1  UNL1        0.1038
      5 C         141.9049  143.1768  160.3062 C.3     1  UNL1        0.0553
      6 C         141.9248  144.0174  159.0640 C.3     1  UNL1        0.0077
      7 C         141.6308  144.4808  160.9950 C.3     1  UNL1        0.0077
      8 C         141.8277  142.6088  161.6924 C.ar    1  UNL1        0.0731
      9 N         141.5773  143.2476  163.0263 N.ar    1  UNL1       -0.2505
     10 CA        141.5575  142.4070  164.2684 C.ar    1  UNL1        0.0845
     11 C         141.7880  140.9276  164.1767 C.ar    1  UNL1       -0.0005
     12 C         142.0384  140.2889  162.8428 C.ar    1  UNL1        0.0134
     13 C         142.0583  141.1295  161.6007 C.ar    1  UNL1        0.0671
     14 C         141.3071  143.0457  165.6024 C.3     1  UNL1        0.1825
     15 O         139.9041  143.3523  166.0356 O.3     1  UNL1       -0.3760
     16 H         139.5284  144.0336  165.4563 H       1  UNL1        0.2110
     17 C         142.7460  139.2187  158.1370 C.3     1  UNL1        0.1591
     18 C         142.4104  134.7348  155.5327 C.3     1  UNL1        0.0186
     19 C         141.7577  135.9636  156.0930 C.3     1  UNL1        0.0703
     20 C         142.5782  136.9768  156.8349 C.3     1  UNL1        0.0884
     21 N         141.9255  138.2056  157.3951 N.3     1  UNL1       -0.2626
     22 C         140.4522  138.4214  157.2136 C.3     1  UNL1        0.0898
     23 C         139.6317  137.4082  156.4718 C.3     1  UNL1        0.0861
     24 N         140.2844  136.1794  155.9115 N.3     1  UNL1       -0.2963
     25 H         140.1093  136.1852  154.9066 H       1  UNL1        0.1233
     26 C         139.7995  139.6502  157.7739 C.3     1  UNL1        0.0897
     27 N         139.2121  139.6244  159.1538 N.3     1  UNL1       -0.2684
     28 C         139.2468  138.3601  159.9604 C.3     1  UNL1        0.1046
     29 C         138.6593  138.3345  161.3403 C.3     1  UNL1        0.1595
     30 O         138.0371  139.5730  161.9137 O.3     1  UNL1       -0.3509
     31 C         138.0023  140.8373  161.1073 C.3     1  UNL1        0.1580
     32 C         138.5898  140.8629  159.7273 C.3     1  UNL1        0.0874
     33 C         138.5551  142.1272  158.9208 C.3     1  UNL1        0.0200
     34 C         141.7682  140.0870  165.4189 C.3     1  UNL1        0.0539
     35 C         140.4757  139.5063  165.9109 C.ar    1  UNL1       -0.0176
     36 C         139.7951  138.4217  165.1296 C.ar    1  UNL1       -0.0016
     37 C         138.5025  137.8410  165.6217 C.ar    1  UNL1        0.0293
     38 C         137.8905  138.3449  166.8951 C.ar    1  UNL1        0.1401
     39 F         136.5980  137.7642  167.3871 F       1  UNL1       -0.2042
     40 C         138.5711  139.4295  167.6764 C.ar    1  UNL1        0.0293
     41 C         139.8636  140.0102  167.1844 C.ar    1  UNL1       -0.0016
@<TRIPOS>BOND
     1    19    18    1
     2    19    20    1
     3    20    21    1
     4    21    17    1
     5    17     1    1
     6     1     2    2
     7     1     3   am
     8     3     4    1
     9     4     5    1
    10     5     6    1
    11     5     7    1
    12     5     8    1
    13     8     9   ar
    14     9    10   ar
    15    10    14    1
    16    14    15    1
    17    10    11   ar
    18    11    34    1
    19    34    35    1
    20    35    36   ar
    21    36    37   ar
    22    37    38   ar
    23    38    39    1
    24    38    40   ar
    25    40    41   ar
    26    11    12   ar
    27    12    13   ar
    28    21    22    1
    29    22    26    1
    30    26    27    1
    31    27    28    1
    32    28    29    1
    33    29    30    1
    34    30    31    1
    35    31    32    1
    36    32    33    1
    37    22    23    1
    38    23    24    1
    39    24    19    1
    40    13     3    1
    41    32    27    1
    42    13     8   ar
    43    41    35   ar
    44    15    16    1
    45    24    25    1
@<TRIPOS>MOLECULE
*****
 41 45 0 0 0
SMALL
GASTEIGER

@<TRIPOS>ATOM
      1 C         143.7788  142.7711  162.4139 C.2     1  UNL1        0.2457
      2 O         144.0842  143.9936  161.6002 O.2     1  UNL1       -0.2730
      3 N         143.6613  141.4342  161.7439 N.am    1  UNL1       -0.2560
      4 C         143.3618  140.1309  162.4233 C.3     1  UNL1        0.1038
      5 C         143.3381  139.0571  161.3762 C.3     1  UNL1        0.0553
      6 C         143.0350  138.1534  162.5345 C.3     1  UNL1        0.0077
      7 C         143.2511  137.7944  160.5713 C.3     1  UNL1        0.0077
      8 C         143.6230  139.6968  160.0497 C.ar    1  UNL1        0.0731
      9 N         143.7264  139.1313  158.6642 N.ar    1  UNL1       -0.2505
     10 CA        144.0294  140.0350  157.5061 C.ar    1  UNL1        0.0845
     11 C         144.2292  141.5042  157.7333 C.ar    1  UNL1       -0.0005
     12 C         144.1258  142.0696  159.1188 C.ar    1  UNL1        0.0134
     13 C         143.8228  141.1660  160.2770 C.ar    1  UNL1        0.0671
     14 C         144.1328  139.4695  156.1205 C.3     1  UNL1        0.1825
     15 O         145.3128  138.6246  155.7414 O.3     1  UNL1       -0.3760
     16 H         146.1168  139.1670  155.7558 H       1  UNL1        0.2110
     17 C         143.5908  142.8856  163.8977 C.3     1  UNL1        0.1591
     18 C         138.6137  144.2648  163.3261 C.3     1  UNL1        0.0186
     19 C         139.7245  143.7343  164.1833 C.3     1  UNL1        0.0703
     20 C         141.1023  143.5752  163.6119 C.3     1  UNL1        0.0884
     21 N         142.2130  143.0447  164.4691 N.3     1  UNL1       -0.2626
     22 C         141.9461  142.6733  165.8976 C.3     1  UNL1        0.0898
     23 C         140.5684  142.8324  166.4690 C.3     1  UNL1        0.0861
     24 N         139.4576  143.3629  165.6118 N.3     1  UNL1       -0.2963
     25 H         139.1045  144.2014  166.0730 H       1  UNL1        0.1233
     26 C         143.0569  142.1428  166.7548 C.3     1  UNL1        0.0897
     27 N         142.7540  141.5818  168.1126 N.3     1  UNL1       -0.2684
     28 C         142.6000  142.5021  169.2871 C.3     1  UNL1        0.1046
     29 C         142.2971  141.9410  170.6448 C.3     1  UNL1        0.1595
     30 O         142.1481  140.4597  170.8281 O.3     1  UNL1       -0.3509
     31 C         142.3020  139.5395  169.6536 C.3     1  UNL1        0.1580
     32 C         142.6050  140.1006  168.2958 C.3     1  UNL1        0.0874
     33 C         142.7589  139.1803  167.1214 C.3     1  UNL1        0.0200
     34 C         144.5323  142.4079  156.5750 C.3     1  UNL1        0.0539
     35 C         145.8356  142.2785  155.8439 C.ar    1  UNL1       -0.0176
     36 C         145.8487  142.1696  154.3479 C.ar    1  UNL1       -0.0016
     37 C         147.1521  142.0403  153.6167 C.ar    1  UNL1        0.0293
     38 C         148.4422  142.0198  154.3815 C.ar    1  UNL1        0.1401
     39 F         149.7455  141.8905  153.6504 F       1  UNL1       -0.2042
     40 C         148.4291  142.1288  155.8775 C.ar    1  UNL1        0.0293
     41 C         147.1258  142.2581  156.6087 C.ar    1  UNL1       -0.0016
@<TRIPOS>BOND
     1    19    18    1
     2    19    20    1
     3    20    21    1
     4    21    17    1
     5    17     1    1
     6     1     2    2
     7     1     3   am
     8     3     4    1
     9     4     5    1
    10     5     6    1
    11     5     7    1
    12     5     8    1
    13     8     9   ar
    14     9    10   ar
    15    10    14    1
    16    14    15    1
    17    10    11   ar
    18    11    34    1
    19    34    35    1
    20    35    36   ar
    21    36    37   ar
    22    37    38   ar
    23    38    39    1
    24    38    40   ar
    25    40    41   ar
    26    11    12   ar
    27    12    13   ar
    28    21    22    1
    29    22    26    1
    30    26    27    1
    31    27    28    1
    32    28    29    1
    33    29    30    1
    34    30    31    1
    35    31    32    1
    36    32    33    1
    37    22    23    1
    38    23    24    1
    39    24    19    1
    40    13     3    1
    41    32    27    1
    42    13     8   ar
    43    41    35   ar
    44    15    16    1
    45    24    25    1
@<TRIPOS>MOLECULE
*****
 41 45 0 0 0
SMALL
GASTEIGER

@<TRIPOS>ATOM
      1 C         139.6827  142.6383  162.8712 C.2     1  UNL1        0.2457
      2 O         139.9337  143.5230  164.0562 O.2     1  UNL1       -0.2730
      3 N         140.2368  141.2447  162.8448 N.am    1  UNL1       -0.2560
      4 C         140.0690  140.2501  161.7346 C.3     1  UNL1        0.1038
      5 C         140.7845  138.9917  162.1276 C.3     1  UNL1        0.0553
      6 C         140.3031  138.4898  160.7985 C.3     1  UNL1        0.0077
      7 C         141.3993  137.6284  162.2428 C.3     1  UNL1        0.0077
      8 C         141.3944  139.2085  163.4808 C.ar    1  UNL1        0.0731
      9 N         142.2143  138.3180  164.3666 N.ar    1  UNL1       -0.2505
     10 CA        142.6956  138.8199  165.6956 C.ar    1  UNL1        0.0845
     11 C         142.3571  140.2123  166.1389 C.ar    1  UNL1       -0.0005
     12 C         141.5372  141.1029  165.2531 C.ar    1  UNL1        0.0134
     13 C         141.0559  140.6010  163.9240 C.ar    1  UNL1        0.0671
     14 C         143.5155  137.9293  166.5815 C.3     1  UNL1        0.1825
     15 O         145.0110  137.9272  166.4652 O.3     1  UNL1       -0.3760
     16 H         145.2674  137.5747  165.5986 H       1  UNL1        0.2110
     17 C         138.8774  143.1474  161.7125 C.3     1  UNL1        0.1591
     18 C         138.3954  141.9671  156.6752 C.3     1  UNL1        0.0186
     19 C         139.2091  142.5189  157.8080 C.3     1  UNL1        0.0703
     20 C         138.6364  142.5572  159.1938 C.3     1  UNL1        0.0884
     21 N         139.4501  143.1091  160.3267 N.3     1  UNL1       -0.2626
     22 C         140.8366  143.6226  160.0738 C.3     1  UNL1        0.0898
     23 C         141.4093  143.5842  158.6880 C.3     1  UNL1        0.0861
     24 N         140.5956  143.0324  157.5551 N.3     1  UNL1       -0.2963
     25 H         141.1288  142.2581  157.1595 H       1  UNL1        0.1233
     26 C         141.6503  144.1744  161.2066 C.3     1  UNL1        0.0897
     27 N         142.7598  143.3580  161.8004 N.3     1  UNL1       -0.2684
     28 C         143.1892  142.0821  161.1387 C.3     1  UNL1        0.1046
     29 C         144.2987  141.2658  161.7325 C.3     1  UNL1        0.1595
     30 O         144.9788  141.7253  162.9880 O.3     1  UNL1       -0.3509
     31 C         144.5494  143.0011  163.6498 C.3     1  UNL1        0.1580
     32 C         143.4399  143.8175  163.0559 C.3     1  UNL1        0.0874
     33 C         143.0105  145.0933  163.7177 C.3     1  UNL1        0.0200
     34 C         142.8385  140.7142  167.4680 C.3     1  UNL1        0.0539
     35 C         141.8759  141.3624  168.4183 C.ar    1  UNL1       -0.0176
     36 C         142.1649  142.7303  168.9618 C.ar    1  UNL1       -0.0016
     37 C         141.2022  143.3785  169.9122 C.ar    1  UNL1        0.0293
     38 C         139.9506  142.6588  170.3190 C.ar    1  UNL1        0.1401
     39 F         138.9880  143.3070  171.2693 F       1  UNL1       -0.2042
     40 C         139.6616  141.2910  169.7755 C.ar    1  UNL1        0.0293
     41 C         140.6242  140.6427  168.8252 C.ar    1  UNL1       -0.0016
@<TRIPOS>BOND
     1    19    18    1
     2    19    20    1
     3    20    21    1
     4    21    17    1
     5    17     1    1
     6     1     2    2
     7     1     3   am
     8     3     4    1
     9     4     5    1
    10     5     6    1
    11     5     7    1
    12     5     8    1
    13     8     9   ar
    14     9    10   ar
    15    10    14    1
    16    14    15    1
    17    10    11   ar
    18    11    34    1
    19    34    35    1
    20    35    36   ar
    21    36    37   ar
    22    37    38   ar
    23    38    39    1
    24    38    40   ar
    25    40    41   ar
    26    11    12   ar
    27    12    13   ar
    28    21    22    1
    29    22    26    1
    30    26    27    1
    31    27    28    1
    32    28    29    1
    33    29    30    1
    34    30    31    1
    35    31    32    1
    36    32    33    1
    37    22    23    1
    38    23    24    1
    39    24    19    1
    40    13     3    1
    41    32    27    1
    42    13     8   ar
    43    41    35   ar
    44    15    16    1
    45    24    25    1
@<TRIPOS>MOLECULE
*****
 41 45 0 0 0
SMALL
GASTEIGER

@<TRIPOS>ATOM
      1 C         138.6944  139.7941  161.5781 C.2     1  UNL1        0.2457
      2 O         137.6817  140.0046  162.6644 O.2     1  UNL1       -0.2730
      3 N         140.1158  139.4695  161.9303 N.am    1  UNL1       -0.2560
      4 C         141.2333  139.2337  160.9580 C.3     1  UNL1        0.1038
      5 C         142.4774  138.9421  161.7436 C.3     1  UNL1        0.0553
      6 C         143.1140  138.8202  160.3907 C.3     1  UNL1        0.0077
      7 C         143.8546  138.6251  162.2463 C.3     1  UNL1        0.0077
      8 C         142.1288  138.9978  163.2014 C.ar    1  UNL1        0.0731
      9 N         142.9519  138.7937  164.4387 N.ar    1  UNL1       -0.2505
     10 CA        142.3154  138.9157  165.7914 C.ar    1  UNL1        0.0845
     11 C         140.8558  139.2416  165.9069 C.ar    1  UNL1       -0.0005
     12 C         140.0327  139.4456  164.6696 C.ar    1  UNL1        0.0134
     13 C         140.6692  139.3237  163.3169 C.ar    1  UNL1        0.0671
     14 C         143.1384  138.7116  167.0288 C.3     1  UNL1        0.1825
     15 O         144.2286  137.6814  167.0430 O.3     1  UNL1       -0.3760
     16 H         143.8388  136.7971  166.9596 H       1  UNL1        0.2110
     17 C         138.2855  139.9083  160.1393 C.3     1  UNL1        0.1591
     18 C         140.7211  140.9938  155.6795 C.3     1  UNL1        0.0186
     19 C         140.1897  141.4364  157.0106 C.3     1  UNL1        0.0703
     20 C         139.5033  140.4510  157.9094 C.3     1  UNL1        0.0884
     21 N         138.9719  140.8936  159.2405 N.3     1  UNL1       -0.2626
     22 C         139.1269  142.3216  159.6728 C.3     1  UNL1        0.0898
     23 C         139.8134  143.3069  158.7739 C.3     1  UNL1        0.0861
     24 N         140.3447  142.8643  157.4429 N.3     1  UNL1       -0.2963
     25 H         141.3448  143.0648  157.4436 H       1  UNL1        0.1233
     26 C         138.5956  142.7642  161.0038 C.3     1  UNL1        0.0897
     27 N         139.5443  143.1604  162.0960 N.3     1  UNL1       -0.2684
     28 C         140.9992  142.8111  161.9890 C.3     1  UNL1        0.1046
     29 C         141.9479  143.2074  163.0812 C.3     1  UNL1        0.1595
     30 O         141.4418  143.9529  164.2804 O.3     1  UNL1       -0.3509
     31 C         139.9870  144.3022  164.3875 C.3     1  UNL1        0.1580
     32 C         139.0383  143.9059  163.2952 C.3     1  UNL1        0.0874
     33 C         137.5834  144.2552  163.4022 C.3     1  UNL1        0.0200
     34 C         140.2192  139.3635  167.2597 C.3     1  UNL1        0.0539
     35 C         140.2369  140.6785  167.9811 C.ar    1  UNL1       -0.0176
     36 C         140.6458  141.9263  167.2560 C.ar    1  UNL1       -0.0016
     37 C         140.6634  143.2413  167.9775 C.ar    1  UNL1        0.0293
     38 C         140.2722  143.3085  169.4240 C.ar    1  UNL1        0.1401
     39 F         140.2898  144.6235  170.1454 F       1  UNL1       -0.2042
     40 C         139.8632  142.0607  170.1491 C.ar    1  UNL1        0.0293
     41 C         139.8456  140.7457  169.4277 C.ar    1  UNL1       -0.0016
@<TRIPOS>BOND
     1    19    18    1
     2    19    20    1
     3    20    21    1
     4    21    17    1
     5    17     1    1
     6     1     2    2
     7     1     3   am
     8     3     4    1
     9     4     5    1
    10     5     6    1
    11     5     7    1
    12     5     8    1
    13     8     9   ar
    14     9    10   ar
    15    10    14    1
    16    14    15    1
    17    10    11   ar
    18    11    34    1
    19    34    35    1
    20    35    36   ar
    21    36    37   ar
    22    37    38   ar
    23    38    39    1
    24    38    40   ar
    25    40    41   ar
    26    11    12   ar
    27    12    13   ar
    28    21    22    1
    29    22    26    1
    30    26    27    1
    31    27    28    1
    32    28    29    1
    33    29    30    1
    34    30    31    1
    35    31    32    1
    36    32    33    1
    37    22    23    1
    38    23    24    1
    39    24    19    1
    40    13     3    1
    41    32    27    1
    42    13     8   ar
    43    41    35   ar
    44    15    16    1
    45    24    25    1
