@<TRIPOS>MOLECULE
*****
 27 30 0 0 0
SMALL
GASTEIGER

@<TRIPOS>ATOM
      1 C         140.1306  137.4390  162.9855 C.3     1  UNL1        0.0721
      2 C         140.7006  137.9605  161.6998 C.3     1  UNL1        0.0191
      3 C         139.6990  138.3254  160.6444 C.3     1  UNL1        0.0062
      4 C         139.9464  138.8681  159.2681 C.3     1  UNL1        0.0277
      5 C         141.2563  139.1799  158.6071 C.ar    1  UNL1       -0.0063
      6 C         141.0569  139.7084  157.2176 C.ar    1  UNL1       -0.0014
      7 C         142.2437  140.0831  156.3802 C.ar    1  UNL1        0.0203
      8 C         143.6298  139.9292  156.9324 C.ar    1  UNL1        0.0985
      9 N         143.8292  139.4006  158.3219 N.ar    1  UNL1       -0.2461
     10 C         142.6425  139.0259  159.1592 C.ar    1  UNL1        0.0817
     11 C         143.0610  138.5223  160.5088 C.3     1  UNL1        0.1498
     12 O         144.5393  138.4883  160.7610 O.3     1  UNL1       -0.3785
     13 C         142.1969  138.0481  161.6394 C.3     1  UNL1        0.0368
     14 H         145.0087  138.8118  159.9762 H       1  UNL1        0.2108
     15 C         140.0293  140.0718  166.6335 C.3     1  UNL1        0.0248
     16 C         138.8082  139.9350  165.7732 C.3     1  UNL1        0.0217
     17 C         138.8419  139.0573  164.5572 C.3     1  UNL1        0.0724
     18 N         140.0968  138.3166  164.2015 N.3     1  UNL1       -0.2727
     19 C         141.3180  138.4535  165.0618 C.3     1  UNL1        0.0724
     20 C         141.2842  139.3311  166.2778 C.3     1  UNL1        0.0217
     21 C         140.9638  142.9171  166.4562 C.3     1  UNL1        0.0307
     22 C         140.4628  142.3721  167.7609 C.ar    1  UNL1       -0.0258
     23 C         140.4291  143.2497  168.9768 C.ar    1  UNL1       -0.0046
     24 C         139.9281  142.7047  170.2814 C.ar    1  UNL1       -0.0003
     25 C         139.4609  141.2821  170.3700 C.ar    1  UNL1       -0.0003
     26 C         139.4946  140.4045  169.1541 C.ar    1  UNL1       -0.0046
     27 C         139.9956  140.9495  167.8495 C.ar    1  UNL1       -0.0264
@<TRIPOS>BOND
     1    21    22    1
     2    22    23   ar
     3    23    24   ar
     4    24    25   ar
     5    25    26   ar
     6    26    27   ar
     7    27    15    1
     8    15    16    1
     9    16    17    1
    10    17    18    1
    11    18     1    1
    12     2     1    1
    13     2     3    1
    14     3     4    1
    15     4     5    1
    16     5     6   ar
    17     6     7   ar
    18     7     8   ar
    19     8     9   ar
    20     9    10   ar
    21    10    11    1
    22    11    12    1
    23    11    13    1
    24    18    19    1
    25    19    20    1
    26    27    22   ar
    27    20    15    1
    28    13     2    1
    29    10     5   ar
    30    12    14    1
@<TRIPOS>MOLECULE
*****
 27 30 0 0 0
SMALL
GASTEIGER

@<TRIPOS>ATOM
      1 C         139.8544  137.3618  163.6169 C.3     1  UNL1        0.0721
      2 C         139.7275  138.0099  162.2701 C.3     1  UNL1        0.0191
      3 C         140.9763  138.0344  161.4394 C.3     1  UNL1        0.0062
      4 C         141.1745  138.6028  160.0655 C.3     1  UNL1        0.0277
      5 C         140.1731  139.2872  159.1830 C.ar    1  UNL1       -0.0063
      6 C         140.7868  139.7060  157.8799 C.ar    1  UNL1       -0.0014
      7 C         139.9533  140.4097  156.8503 C.ar    1  UNL1        0.0203
      8 C         138.5062  140.6946  157.1238 C.ar    1  UNL1        0.0985
      9 N         137.8926  140.2758  158.4268 N.ar    1  UNL1       -0.2461
     10 C         138.7260  139.5721  159.4564 C.ar    1  UNL1        0.0817
     11 C         137.9230  139.2430  160.6799 C.3     1  UNL1        0.1498
     12 O         136.4840  139.6650  160.6468 O.3     1  UNL1       -0.3785
     13 C         138.3687  138.5478  161.9321 C.3     1  UNL1        0.0368
     14 H         136.2947  140.1025  159.8020 H       1  UNL1        0.2108
     15 C         140.3148  139.9027  167.3022 C.3     1  UNL1        0.0248
     16 C         141.5251  139.4998  166.5131 C.3     1  UNL1        0.0217
     17 C         141.3716  138.6528  165.2846 C.3     1  UNL1        0.0724
     18 N         140.0079  138.2087  164.8453 N.3     1  UNL1       -0.2727
     19 C         138.7975  138.6116  165.6345 C.3     1  UNL1        0.0724
     20 C         138.9510  139.4586  166.8630 C.3     1  UNL1        0.0217
     21 C         140.3532  142.8932  167.0671 C.3     1  UNL1        0.0307
     22 C         140.4874  142.2449  168.4132 C.ar    1  UNL1       -0.0258
     23 C         140.6408  143.0919  169.6416 C.ar    1  UNL1       -0.0046
     24 C         140.7750  142.4436  170.9875 C.ar    1  UNL1       -0.0003
     25 C         140.7558  140.9484  171.1051 C.ar    1  UNL1       -0.0003
     26 C         140.6024  140.1014  169.8767 C.ar    1  UNL1       -0.0046
     27 C         140.4682  140.7497  168.5307 C.ar    1  UNL1       -0.0264
@<TRIPOS>BOND
     1    21    22    1
     2    22    23   ar
     3    23    24   ar
     4    24    25   ar
     5    25    26   ar
     6    26    27   ar
     7    27    15    1
     8    15    16    1
     9    16    17    1
    10    17    18    1
    11    18     1    1
    12     2     1    1
    13     2     3    1
    14     3     4    1
    15     4     5    1
    16     5     6   ar
    17     6     7   ar
    18     7     8   ar
    19     8     9   ar
    20     9    10   ar
    21    10    11    1
    22    11    12    1
    23    11    13    1
    24    18    19    1
    25    19    20    1
    26    27    22   ar
    27    20    15    1
    28    13     2    1
    29    10     5   ar
    30    12    14    1
@<TRIPOS>MOLECULE
*****
 27 30 0 0 0
SMALL
GASTEIGER

@<TRIPOS>ATOM
      1 C         137.6447  142.5064  162.9813 C.3     1  UNL1        0.0721
      2 C         138.4345  143.0346  161.8206 C.3     1  UNL1        0.0191
      3 C         138.3082  142.2613  160.5416 C.3     1  UNL1        0.0062
      4 C         138.9625  142.5288  159.2186 C.3     1  UNL1        0.0277
      5 C         139.9046  143.6356  158.8478 C.ar    1  UNL1       -0.0063
      6 C         140.3284  143.5367  157.4123 C.ar    1  UNL1       -0.0014
      7 C         141.2727  144.5506  156.8376 C.ar    1  UNL1        0.0203
      8 C         141.7932  145.6633  157.6984 C.ar    1  UNL1        0.0985
      9 N         141.3695  145.7622  159.1338 N.ar    1  UNL1       -0.2461
     10 C         140.4252  144.7483  159.7085 C.ar    1  UNL1        0.0817
     11 C         140.1321  145.0290  161.1526 C.3     1  UNL1        0.1498
     12 O         140.8154  146.2314  161.7335 O.3     1  UNL1       -0.3785
     13 C         139.2463  144.2664  162.0926 C.3     1  UNL1        0.0368
     14 H         141.3616  146.6536  161.0521 H       1  UNL1        0.2108
     15 C         139.7727  140.8933  166.6033 C.3     1  UNL1        0.0248
     16 C         138.8946  139.9925  165.7863 C.3     1  UNL1        0.0217
     17 C         138.1852  140.5302  164.5789 C.3     1  UNL1        0.0724
     18 N         138.3540  141.9687  164.1886 N.3     1  UNL1       -0.2727
     19 C         139.2321  142.8694  165.0057 C.3     1  UNL1        0.0724
     20 C         139.9415  142.3317  166.2130 C.3     1  UNL1        0.0217
     21 C         142.5334  139.7500  166.3357 C.3     1  UNL1        0.0307
     22 C         141.8625  139.7840  167.6769 C.ar    1  UNL1       -0.0258
     23 C         142.5718  139.2463  168.8842 C.ar    1  UNL1       -0.0046
     24 C         141.9009  139.2802  170.2253 C.ar    1  UNL1       -0.0003
     25 C         140.5205  139.8518  170.3591 C.ar    1  UNL1       -0.0003
     26 C         139.8111  140.3895  169.1518 C.ar    1  UNL1       -0.0046
     27 C         140.4821  140.3556  167.8107 C.ar    1  UNL1       -0.0264
@<TRIPOS>BOND
     1    21    22    1
     2    22    23   ar
     3    23    24   ar
     4    24    25   ar
     5    25    26   ar
     6    26    27   ar
     7    27    15    1
     8    15    16    1
     9    16    17    1
    10    17    18    1
    11    18     1    1
    12     2     1    1
    13     2     3    1
    14     3     4    1
    15     4     5    1
    16     5     6   ar
    17     6     7   ar
    18     7     8   ar
    19     8     9   ar
    20     9    10   ar
    21    10    11    1
    22    11    12    1
    23    11    13    1
    24    18    19    1
    25    19    20    1
    26    27    22   ar
    27    20    15    1
    28    13     2    1
    29    10     5   ar
    30    12    14    1
@<TRIPOS>MOLECULE
*****
 27 30 0 0 0
SMALL
GASTEIGER

@<TRIPOS>ATOM
      1 C         138.0093  143.7260  163.4016 C.3     1  UNL1        0.0721
      2 C         138.6808  143.8659  162.0676 C.3     1  UNL1        0.0191
      3 C         139.5885  145.0505  161.9168 C.3     1  UNL1        0.0062
      4 C         140.3953  145.4644  160.7219 C.3     1  UNL1        0.0277
      5 C         140.4937  144.7959  159.3827 C.ar    1  UNL1       -0.0063
      6 C         141.4173  145.5407  158.4650 C.ar    1  UNL1       -0.0014
      7 C         141.6567  145.0380  157.0722 C.ar    1  UNL1        0.0203
      8 C         140.9726  143.7905  156.5971 C.ar    1  UNL1        0.0985
      9 N         140.0490  143.0457  157.5148 N.ar    1  UNL1       -0.2461
     10 C         139.8096  143.5484  158.9076 C.ar    1  UNL1        0.0817
     11 C         138.8581  142.6613  159.6545 C.3     1  UNL1        0.1498
     12 O         138.3406  141.4761  158.8945 O.3     1  UNL1       -0.3785
     13 C         138.3557  142.8025  161.0607 C.3     1  UNL1        0.0368
     14 H         138.7209  141.4730  158.0021 H       1  UNL1        0.2108
     15 C         140.0370  141.4530  166.7139 C.3     1  UNL1        0.0248
     16 C         139.0994  140.7438  165.7823 C.3     1  UNL1        0.0217
     17 C         138.4235  141.5015  164.6781 C.3     1  UNL1        0.0724
     18 N         138.6852  142.9684  164.5057 N.3     1  UNL1       -0.2727
     19 C         139.6228  143.6776  165.4374 C.3     1  UNL1        0.0724
     20 C         140.2986  142.9199  166.5415 C.3     1  UNL1        0.0217
     21 C         142.7092  140.1750  166.2389 C.3     1  UNL1        0.0307
     22 C         142.0490  140.0563  167.5806 C.ar    1  UNL1       -0.0258
     23 C         142.7249  139.2986  168.6846 C.ar    1  UNL1       -0.0046
     24 C         142.0647  139.1799  170.0263 C.ar    1  UNL1       -0.0003
     25 C         140.7286  139.8189  170.2638 C.ar    1  UNL1       -0.0003
     26 C         140.0527  140.5766  169.1597 C.ar    1  UNL1       -0.0046
     27 C         140.7129  140.6953  167.8181 C.ar    1  UNL1       -0.0264
@<TRIPOS>BOND
     1    21    22    1
     2    22    23   ar
     3    23    24   ar
     4    24    25   ar
     5    25    26   ar
     6    26    27   ar
     7    27    15    1
     8    15    16    1
     9    16    17    1
    10    17    18    1
    11    18     1    1
    12     2     1    1
    13     2     3    1
    14     3     4    1
    15     4     5    1
    16     5     6   ar
    17     6     7   ar
    18     7     8   ar
    19     8     9   ar
    20     9    10   ar
    21    10    11    1
    22    11    12    1
    23    11    13    1
    24    18    19    1
    25    19    20    1
    26    27    22   ar
    27    20    15    1
    28    13     2    1
    29    10     5   ar
    30    12    14    1
@<TRIPOS>MOLECULE
*****
 27 30 0 0 0
SMALL
GASTEIGER

@<TRIPOS>ATOM
      1 C         144.1065  138.7704  163.1559 C.3     1  UNL1        0.0721
      2 C         143.3193  138.8194  161.8801 C.3     1  UNL1        0.0191
      3 C         144.0425  139.3771  160.6901 C.3     1  UNL1        0.0062
      4 C         143.5379  139.5573  159.2891 C.3     1  UNL1        0.0277
      5 C         142.1856  139.2245  158.7319 C.ar    1  UNL1       -0.0063
      6 C         142.0948  139.5646  157.2738 C.ar    1  UNL1       -0.0014
      7 C         140.8222  139.3094  156.5220 C.ar    1  UNL1        0.0203
      8 C         139.6403  138.7140  157.2283 C.ar    1  UNL1        0.0985
      9 N         139.7312  138.3739  158.6864 N.ar    1  UNL1       -0.2461
     10 C         141.0038  138.6291  159.4382 C.ar    1  UNL1        0.0817
     11 C         140.8825  138.2196  160.8761 C.3     1  UNL1        0.1498
     12 O         139.5551  137.6501  161.2808 O.3     1  UNL1       -0.3785
     13 C         141.9129  138.3043  161.9629 C.3     1  UNL1        0.0368
     14 H         138.9614  137.6372  160.5138 H       1  UNL1        0.2108
     15 C         142.7651  141.1666  166.7209 C.3     1  UNL1        0.0248
     16 C         143.3927  141.8569  165.5464 C.3     1  UNL1        0.0217
     17 C         143.8398  141.0582  164.3580 C.3     1  UNL1        0.0724
     18 N         143.6594  139.5691  164.3442 N.3     1  UNL1       -0.2727
     19 C         143.0317  138.8788  165.5188 C.3     1  UNL1        0.0724
     20 C         142.5846  139.6775  166.7071 C.3     1  UNL1        0.0217
     21 C         140.0119  142.3568  166.7783 C.3     1  UNL1        0.0307
     22 C         140.9414  142.5604  167.9380 C.ar    1  UNL1       -0.0258
     23 C         140.4942  143.3591  169.1263 C.ar    1  UNL1       -0.0046
     24 C         141.4236  143.5626  170.2859 C.ar    1  UNL1       -0.0003
     25 C         142.8002  142.9675  170.2572 C.ar    1  UNL1       -0.0003
     26 C         143.2473  142.1688  169.0689 C.ar    1  UNL1       -0.0046
     27 C         142.3179  141.9653  167.9093 C.ar    1  UNL1       -0.0264
@<TRIPOS>BOND
     1    21    22    1
     2    22    23   ar
     3    23    24   ar
     4    24    25   ar
     5    25    26   ar
     6    26    27   ar
     7    27    15    1
     8    15    16    1
     9    16    17    1
    10    17    18    1
    11    18     1    1
    12     2     1    1
    13     2     3    1
    14     3     4    1
    15     4     5    1
    16     5     6   ar
    17     6     7   ar
    18     7     8   ar
    19     8     9   ar
    20     9    10   ar
    21    10    11    1
    22    11    12    1
    23    11    13    1
    24    18    19    1
    25    19    20    1
    26    27    22   ar
    27    20    15    1
    28    13     2    1
    29    10     5   ar
    30    12    14    1
@<TRIPOS>MOLECULE
*****
 27 30 0 0 0
SMALL
GASTEIGER

@<TRIPOS>ATOM
      1 C         138.6121  138.3767  163.3014 C.3     1  UNL1        0.0721
      2 C         138.6611  139.1742  162.0319 C.3     1  UNL1        0.0191
      3 C         139.1768  138.4466  160.8258 C.3     1  UNL1        0.0062
      4 C         139.3467  138.9590  159.4263 C.3     1  UNL1        0.0277
      5 C         139.0428  140.3254  158.8871 C.ar    1  UNL1       -0.0063
      6 C         139.3597  140.4202  157.4241 C.ar    1  UNL1       -0.0014
      7 C         139.1277  141.7066  156.6884 C.ar    1  UNL1        0.0203
      8 C         138.5789  142.8982  157.4157 C.ar    1  UNL1        0.0985
      9 N         138.2620  142.8033  158.8787 N.ar    1  UNL1       -0.2461
     10 C         138.4940  141.5169  159.6145 C.ar    1  UNL1        0.0817
     11 C         138.1135  141.6363  161.0605 C.3     1  UNL1        0.1498
     12 O         137.5894  142.9755  161.4871 O.3     1  UNL1       -0.3785
     13 C         138.1878  140.5938  162.1364 C.3     1  UNL1        0.0368
     14 H         137.5800  143.5765  160.7258 H       1  UNL1        0.2108
     15 C         140.4715  140.0118  167.0588 C.3     1  UNL1        0.0248
     16 C         139.0190  139.6378  167.0422 C.3     1  UNL1        0.0217
     17 C         138.3992  139.0928  165.7897 C.3     1  UNL1        0.0724
     18 N         139.2319  138.9217  164.5538 N.3     1  UNL1       -0.2727
     19 C         140.6844  139.2958  164.5705 C.3     1  UNL1        0.0724
     20 C         141.3042  139.8408  165.8230 C.3     1  UNL1        0.0217
     21 C         140.3768  142.9573  167.6203 C.3     1  UNL1        0.0307
     22 C         141.0440  142.0296  168.5921 C.ar    1  UNL1       -0.0258
     23 C         141.6639  142.5747  169.8445 C.ar    1  UNL1       -0.0046
     24 C         142.3311  141.6471  170.8162 C.ar    1  UNL1       -0.0003
     25 C         142.3784  140.1743  170.5355 C.ar    1  UNL1       -0.0003
     26 C         141.7586  139.6293  169.2831 C.ar    1  UNL1       -0.0046
     27 C         141.0914  140.5569  168.3114 C.ar    1  UNL1       -0.0264
@<TRIPOS>BOND
     1    21    22    1
     2    22    23   ar
     3    23    24   ar
     4    24    25   ar
     5    25    26   ar
     6    26    27   ar
     7    27    15    1
     8    15    16    1
     9    16    17    1
    10    17    18    1
    11    18     1    1
    12     2     1    1
    13     2     3    1
    14     3     4    1
    15     4     5    1
    16     5     6   ar
    17     6     7   ar
    18     7     8   ar
    19     8     9   ar
    20     9    10   ar
    21    10    11    1
    22    11    12    1
    23    11    13    1
    24    18    19    1
    25    19    20    1
    26    27    22   ar
    27    20    15    1
    28    13     2    1
    29    10     5   ar
    30    12    14    1
@<TRIPOS>MOLECULE
*****
 27 30 0 0 0
SMALL
GASTEIGER

@<TRIPOS>ATOM
      1 C         143.7781  143.2910  162.7218 C.3     1  UNL1        0.0721
      2 C         143.5325  142.4780  161.4853 C.3     1  UNL1        0.0191
      3 C         142.7817  143.1727  160.3882 C.3     1  UNL1        0.0062
      4 C         142.3833  142.6388  159.0443 C.3     1  UNL1        0.0277
      5 C         142.6372  141.2784  158.4655 C.ar    1  UNL1       -0.0063
      6 C         142.0670  141.1556  157.0836 C.ar    1  UNL1       -0.0014
      7 C         142.2119  139.8703  156.3240 C.ar    1  UNL1        0.0203
      8 C         142.9270  138.7078  156.9463 C.ar    1  UNL1        0.0985
      9 N         143.4972  138.8306  158.3283 N.ar    1  UNL1       -0.2461
     10 C         143.3522  140.1159  159.0879 C.ar    1  UNL1        0.0817
     11 C         143.9900  140.0267  160.4426 C.3     1  UNL1        0.1498
     12 O         144.6325  138.7125  160.7742 O.3     1  UNL1       -0.3785
     13 C         144.0703  141.0779  161.5096 C.3     1  UNL1        0.0368
     14 H         144.5281  138.1037  160.0263 H       1  UNL1        0.2108
     15 C         141.5324  142.3609  166.5089 C.3     1  UNL1        0.0248
     16 C         143.0002  142.0664  166.4158 C.3     1  UNL1        0.0217
     17 C         143.7488  142.3765  165.1534 C.3     1  UNL1        0.0724
     18 N         143.0295  142.9810  163.9841 N.3     1  UNL1       -0.2727
     19 C         141.5616  143.2755  164.0773 C.3     1  UNL1        0.0724
     20 C         140.8131  142.9654  165.3396 C.3     1  UNL1        0.0217
     21 C         140.1638  139.7105  166.8287 C.3     1  UNL1        0.0307
     22 C         140.0995  140.7257  167.9312 C.ar    1  UNL1       -0.0258
     23 C         139.3509  140.4156  169.1935 C.ar    1  UNL1       -0.0046
     24 C         139.2866  141.4308  170.2958 C.ar    1  UNL1       -0.0003
     25 C         139.9709  142.7560  170.1359 C.ar    1  UNL1       -0.0003
     26 C         140.7195  143.0660  168.8736 C.ar    1  UNL1       -0.0046
     27 C         140.7838  142.0509  167.7712 C.ar    1  UNL1       -0.0264
@<TRIPOS>BOND
     1    21    22    1
     2    22    23   ar
     3    23    24   ar
     4    24    25   ar
     5    25    26   ar
     6    26    27   ar
     7    27    15    1
     8    15    16    1
     9    16    17    1
    10    17    18    1
    11    18     1    1
    12     2     1    1
    13     2     3    1
    14     3     4    1
    15     4     5    1
    16     5     6   ar
    17     6     7   ar
    18     7     8   ar
    19     8     9   ar
    20     9    10   ar
    21    10    11    1
    22    11    12    1
    23    11    13    1
    24    18    19    1
    25    19    20    1
    26    27    22   ar
    27    20    15    1
    28    13     2    1
    29    10     5   ar
    30    12    14    1
@<TRIPOS>MOLECULE
*****
 27 30 0 0 0
SMALL
GASTEIGER

@<TRIPOS>ATOM
      1 C         137.9583  139.8019  163.0453 C.3     1  UNL1        0.0721
      2 C         138.7995  139.5160  161.8367 C.3     1  UNL1        0.0191
      3 C         138.3341  140.1441  160.5565 C.3     1  UNL1        0.0062
      4 C         138.9491  140.0510  159.1916 C.3     1  UNL1        0.0277
      5 C         140.1814  139.3070  158.7697 C.ar    1  UNL1       -0.0063
      6 C         140.4491  139.4768  157.3036 C.ar    1  UNL1       -0.0014
      7 C         141.6383  138.8119  156.6764 C.ar    1  UNL1        0.0203
      8 C         142.5599  137.9771  157.5153 C.ar    1  UNL1        0.0985
      9 N         142.2923  137.8073  158.9814 N.ar    1  UNL1       -0.2461
     10 C         141.1030  138.4722  159.6086 C.ar    1  UNL1        0.0817
     11 C         141.0199  138.1753  161.0766 C.3     1  UNL1        0.1498
     12 O         142.1056  137.2978  161.6255 O.3     1  UNL1       -0.3785
     13 C         139.9948  138.6398  162.0682 C.3     1  UNL1        0.0368
     14 H         142.7146  137.0520  160.9116 H       1  UNL1        0.2108
     15 C         139.9075  140.3587  167.0628 C.3     1  UNL1        0.0248
     16 C         139.0951  139.1283  166.7875 C.3     1  UNL1        0.0217
     17 C         138.4453  138.9426  165.4483 C.3     1  UNL1        0.0724
     18 N         138.6080  139.9875  164.3845 N.3     1  UNL1       -0.2727
     19 C         139.4205  141.2180  164.6598 C.3     1  UNL1        0.0724
     20 C         140.0702  141.4036  165.9990 C.3     1  UNL1        0.0217
     21 C         142.6857  139.3309  167.5374 C.3     1  UNL1        0.0307
     22 C         141.9464  140.0305  168.6393 C.ar    1  UNL1       -0.0258
     23 C         142.5962  140.2161  169.9784 C.ar    1  UNL1       -0.0046
     24 C         141.8569  140.9156  171.0803 C.ar    1  UNL1       -0.0003
     25 C         140.4678  141.4295  170.8430 C.ar    1  UNL1       -0.0003
     26 C         139.8180  141.2439  169.5038 C.ar    1  UNL1       -0.0046
     27 C         140.5573  140.5444  168.4020 C.ar    1  UNL1       -0.0264
@<TRIPOS>BOND
     1    21    22    1
     2    22    23   ar
     3    23    24   ar
     4    24    25   ar
     5    25    26   ar
     6    26    27   ar
     7    27    15    1
     8    15    16    1
     9    16    17    1
    10    17    18    1
    11    18     1    1
    12     2     1    1
    13     2     3    1
    14     3     4    1
    15     4     5    1
    16     5     6   ar
    17     6     7   ar
    18     7     8   ar
    19     8     9   ar
    20     9    10   ar
    21    10    11    1
    22    11    12    1
    23    11    13    1
    24    18    19    1
    25    19    20    1
    26    27    22   ar
    27    20    15    1
    28    13     2    1
    29    10     5   ar
    30    12    14    1
@<TRIPOS>MOLECULE
*****
 27 30 0 0 0
SMALL
GASTEIGER

@<TRIPOS>ATOM
      1 C         140.6731  145.3717  162.3401 C.3     1  UNL1        0.0721
      2 C         140.2436  144.7265  161.0559 C.3     1  UNL1        0.0191
      3 C         140.6877  145.4167  159.8004 C.3     1  UNL1        0.0062
      4 C         140.4246  145.0272  158.3759 C.3     1  UNL1        0.0277
      5 C         139.6525  143.8514  157.8551 C.ar    1  UNL1       -0.0063
      6 C         139.6304  143.8310  156.3554 C.ar    1  UNL1       -0.0014
      7 C         138.9086  142.7338  155.6309 C.ar    1  UNL1        0.0203
      8 C         138.2088  141.6570  156.4059 C.ar    1  UNL1        0.0985
      9 N         138.2309  141.6774  157.9056 N.ar    1  UNL1       -0.2461
     10 C         138.9528  142.7745  158.6302 C.ar    1  UNL1        0.0817
     11 C         138.8523  142.6077  160.1175 C.3     1  UNL1        0.1498
     12 O         138.0745  141.4142  160.5874 O.3     1  UNL1       -0.3785
     13 C         139.4268  143.4763  161.1971 C.3     1  UNL1        0.0368
     14 H         137.7465  140.9196  159.8202 H       1  UNL1        0.2108
     15 C         140.3381  143.1106  166.2163 C.3     1  UNL1        0.0248
     16 C         139.2023  143.9724  165.7502 C.3     1  UNL1        0.0217
     17 C         139.3140  144.7262  164.4581 C.3     1  UNL1        0.0724
     18 N         140.5614  144.6180  163.6322 N.3     1  UNL1       -0.2727
     19 C         141.6972  143.7562  164.0983 C.3     1  UNL1        0.0724
     20 C         141.5855  143.0025  165.3904 C.3     1  UNL1        0.0217
     21 C         139.5771  140.2088  166.1992 C.3     1  UNL1        0.0307
     22 C         139.8459  140.9060  167.4999 C.ar    1  UNL1       -0.0258
     23 C         139.7343  140.1523  168.7919 C.ar    1  UNL1       -0.0046
     24 C         140.0031  140.8494  170.0925 C.ar    1  UNL1       -0.0003
     25 C         140.3837  142.3004  170.1011 C.ar    1  UNL1       -0.0003
     26 C         140.4953  143.0541  168.8091 C.ar    1  UNL1       -0.0046
     27 C         140.2264  142.3569  167.5085 C.ar    1  UNL1       -0.0264
@<TRIPOS>BOND
     1    21    22    1
     2    22    23   ar
     3    23    24   ar
     4    24    25   ar
     5    25    26   ar
     6    26    27   ar
     7    27    15    1
     8    15    16    1
     9    16    17    1
    10    17    18    1
    11    18     1    1
    12     2     1    1
    13     2     3    1
    14     3     4    1
    15     4     5    1
    16     5     6   ar
    17     6     7   ar
    18     7     8   ar
    19     8     9   ar
    20     9    10   ar
    21    10    11    1
    22    11    12    1
    23    11    13    1
    24    18    19    1
    25    19    20    1
    26    27    22   ar
    27    20    15    1
    28    13     2    1
    29    10     5   ar
    30    12    14    1
