@<TRIPOS>MOLECULE
*****
 22 24 0 0 0
SMALL
GASTEIGER

@<TRIPOS>ATOM
      1 C         140.3496  144.6374  170.1387 C.3     1  UNL1        0.0420
      2 C         140.3399  143.2334  169.6107 C.3     1  UNL1        0.1909
      3 O         140.3648  142.9884  168.1311 O.3     1  UNL1       -0.3501
      4 C         140.3552  141.5844  167.6030 C.3     1  UNL1        0.1141
      5 C         140.3455  140.1804  167.0751 C.3     1  UNL1        0.0463
      6 C         140.3704  139.9354  165.5955 C.3     1  UNL1        0.0746
      7 N         140.4050  141.0944  164.6438 N.3     1  UNL1       -0.2722
      8 C         140.4147  142.4983  165.1718 C.3     1  UNL1        0.0746
      9 C         140.3898  142.7433  166.6514 C.3     1  UNL1        0.0463
     10 C         140.3205  140.4254  168.5547 C.3     1  UNL1        0.1206
     11 N         140.2956  140.6705  170.0344 N.am    1  UNL1       -0.2734
     12 C         140.2610  139.5116  170.9860 C.3     1  UNL1        0.1150
     13 C         140.3053  142.0745  170.5623 C.2     1  UNL1        0.2529
     14 O         140.2804  142.3195  172.0420 O.2     1  UNL1       -0.2722
     15 C         140.4299  140.8493  163.1641 C.3     1  UNL1        0.0768
     16 C         141.6397  140.2332  162.5262 C.3     1  UNL1        0.0437
     17 C         143.0125  140.6725  162.9417 C.ar    1  UNL1       -0.0208
     18 C         143.8917  139.7442  163.7260 C.ar    1  UNL1       -0.0042
     19 C         145.2644  140.1836  164.1414 C.ar    1  UNL1       -0.0003
     20 C         145.7579  141.5511  163.7724 C.ar    1  UNL1       -0.0000
     21 C         144.8787  142.4794  162.9881 C.ar    1  UNL1       -0.0003
     22 C         143.5060  142.0401  162.5727 C.ar    1  UNL1       -0.0042
@<TRIPOS>BOND
     1     1     2    1
     2     2     3    1
     3     3     4    1
     4     4     5    1
     5     5     6    1
     6     6     7    1
     7     7    15    1
     8    15    16    1
     9    16    17    1
    10    17    18   ar
    11    18    19   ar
    12    19    20   ar
    13    20    21   ar
    14    21    22   ar
    15     7     8    1
    16     8     9    1
    17     4    10    1
    18    10    11    1
    19    11    12    1
    20    11    13   am
    21    13    14    2
    22    13     2    1
    23     9     4    1
    24    22    17   ar
@<TRIPOS>MOLECULE
*****
 22 24 0 0 0
SMALL
GASTEIGER

@<TRIPOS>ATOM
      1 C         138.2103  138.8812  166.7689 C.3     1  UNL1        0.0420
      2 C         139.3751  139.7536  167.1325 C.3     1  UNL1        0.1909
      3 O         140.3681  140.1551  166.0824 O.3     1  UNL1       -0.3501
      4 C         141.5330  141.0274  166.4461 C.3     1  UNL1        0.1141
      5 C         142.6977  141.8998  166.8098 C.3     1  UNL1        0.0463
      6 C         143.6907  142.3013  165.7597 C.3     1  UNL1        0.0746
      7 N         143.5189  141.8304  164.3459 N.3     1  UNL1       -0.2722
      8 C         142.3542  140.9580  163.9822 C.3     1  UNL1        0.0746
      9 C         141.3612  140.5566  165.0323 C.3     1  UNL1        0.0463
     10 C         141.7047  141.4983  167.8599 C.3     1  UNL1        0.1206
     11 N         140.7117  141.0968  168.9100 N.am    1  UNL1       -0.2734
     12 C         140.8834  141.5677  170.3238 C.3     1  UNL1        0.1150
     13 C         139.5469  140.2245  168.5463 C.2     1  UNL1        0.2529
     14 O         138.5538  139.8230  169.5964 O.2     1  UNL1       -0.2722
     15 C         144.5120  142.2319  163.2958 C.3     1  UNL1        0.0768
     16 C         144.4089  143.5777  162.6415 C.3     1  UNL1        0.0437
     17 C         143.0687  144.2314  162.4779 C.ar    1  UNL1       -0.0208
     18 C         142.2830  144.0261  161.2169 C.ar    1  UNL1       -0.0042
     19 C         140.9429  144.6799  161.0534 C.ar    1  UNL1       -0.0003
     20 C         140.3886  145.5389  162.1510 C.ar    1  UNL1       -0.0000
     21 C         141.1743  145.7443  163.4121 C.ar    1  UNL1       -0.0003
     22 C         142.5144  145.0905  163.5756 C.ar    1  UNL1       -0.0042
@<TRIPOS>BOND
     1     1     2    1
     2     2     3    1
     3     3     4    1
     4     4     5    1
     5     5     6    1
     6     6     7    1
     7     7    15    1
     8    15    16    1
     9    16    17    1
    10    17    18   ar
    11    18    19   ar
    12    19    20   ar
    13    20    21   ar
    14    21    22   ar
    15     7     8    1
    16     8     9    1
    17     4    10    1
    18    10    11    1
    19    11    12    1
    20    11    13   am
    21    13    14    2
    22    13     2    1
    23     9     4    1
    24    22    17   ar
@<TRIPOS>MOLECULE
*****
 22 24 0 0 0
SMALL
GASTEIGER

@<TRIPOS>ATOM
      1 C         138.6879  140.3923  170.2068 C.3     1  UNL1        0.0420
      2 C         139.9018  141.0255  169.5939 C.3     1  UNL1        0.1909
      3 O         140.1716  140.8653  168.1272 O.3     1  UNL1       -0.3501
      4 C         141.3855  141.4985  167.5143 C.3     1  UNL1        0.1141
      5 C         142.5994  142.1316  166.9015 C.3     1  UNL1        0.0463
      6 C         142.8692  141.9714  165.4347 C.3     1  UNL1        0.0746
      7 N         141.9251  141.1780  164.5807 N.3     1  UNL1       -0.2722
      8 C         140.7113  140.5448  165.1935 C.3     1  UNL1        0.0746
      9 C         140.4415  140.7051  166.6603 C.3     1  UNL1        0.0463
     10 C         142.3296  142.2919  168.3683 C.3     1  UNL1        0.1206
     11 N         142.0597  142.4521  169.8351 N.am    1  UNL1       -0.2734
     12 C         143.0037  143.2455  170.6891 C.3     1  UNL1        0.1150
     13 C         140.8458  141.8189  170.4479 C.2     1  UNL1        0.2529
     14 O         140.5759  141.9791  171.9148 O.2     1  UNL1       -0.2722
     15 C         142.1950  141.0178  163.1139 C.3     1  UNL1        0.0768
     16 C         141.6845  142.0393  162.1414 C.3     1  UNL1        0.0437
     17 C         140.4265  142.7988  162.4428 C.ar    1  UNL1       -0.0208
     18 C         140.5034  144.1555  163.0780 C.ar    1  UNL1       -0.0042
     19 C         139.2455  144.9149  163.3793 C.ar    1  UNL1       -0.0003
     20 C         137.9106  144.3177  163.0454 C.ar    1  UNL1       -0.0000
     21 C         137.8337  142.9610  162.4102 C.ar    1  UNL1       -0.0003
     22 C         139.0917  142.2016  162.1089 C.ar    1  UNL1       -0.0042
@<TRIPOS>BOND
     1     1     2    1
     2     2     3    1
     3     3     4    1
     4     4     5    1
     5     5     6    1
     6     6     7    1
     7     7    15    1
     8    15    16    1
     9    16    17    1
    10    17    18   ar
    11    18    19   ar
    12    19    20   ar
    13    20    21   ar
    14    21    22   ar
    15     7     8    1
    16     8     9    1
    17     4    10    1
    18    10    11    1
    19    11    12    1
    20    11    13   am
    21    13    14    2
    22    13     2    1
    23     9     4    1
    24    22    17   ar
@<TRIPOS>MOLECULE
*****
 22 24 0 0 0
SMALL
GASTEIGER

@<TRIPOS>ATOM
      1 C         138.4781  139.3487  168.0170 C.3     1  UNL1        0.0420
      2 C         138.8339  139.5771  166.5778 C.3     1  UNL1        0.1909
      3 O         139.3981  140.8978  166.1451 O.3     1  UNL1       -0.3501
      4 C         139.7539  141.1261  164.7059 C.3     1  UNL1        0.1141
      5 C         140.1097  141.3544  163.2667 C.3     1  UNL1        0.0463
      6 C         140.6739  142.6752  162.8340 C.3     1  UNL1        0.0746
      7 N         140.8824  143.7676  163.8406 N.3     1  UNL1       -0.2722
      8 C         140.5267  143.5393  165.2797 C.3     1  UNL1        0.0746
      9 C         139.9624  142.2186  165.7124 C.3     1  UNL1        0.0463
     10 C         139.5454  140.0337  163.6993 C.3     1  UNL1        0.1206
     11 N         138.9811  138.7129  164.1321 N.am    1  UNL1       -0.2734
     12 C         138.7726  137.6205  163.1255 C.3     1  UNL1        0.1150
     13 C         138.6254  138.4846  165.5712 C.2     1  UNL1        0.2529
     14 O         138.0611  137.1638  166.0040 O.2     1  UNL1       -0.2722
     15 C         141.4467  145.0884  163.4078 C.3     1  UNL1        0.0768
     16 C         142.9323  145.2778  163.3234 C.3     1  UNL1        0.0437
     17 C         143.8419  144.0851  163.3278 C.ar    1  UNL1       -0.0208
     18 C         144.2996  143.4861  162.0310 C.ar    1  UNL1       -0.0042
     19 C         145.2092  142.2934  162.0355 C.ar    1  UNL1       -0.0003
     20 C         145.6612  141.6997  163.3368 C.ar    1  UNL1       -0.0000
     21 C         145.2035  142.2988  164.6336 C.ar    1  UNL1       -0.0003
     22 C         144.2939  143.4914  164.6291 C.ar    1  UNL1       -0.0042
@<TRIPOS>BOND
     1     1     2    1
     2     2     3    1
     3     3     4    1
     4     4     5    1
     5     5     6    1
     6     6     7    1
     7     7    15    1
     8    15    16    1
     9    16    17    1
    10    17    18   ar
    11    18    19   ar
    12    19    20   ar
    13    20    21   ar
    14    21    22   ar
    15     7     8    1
    16     8     9    1
    17     4    10    1
    18    10    11    1
    19    11    12    1
    20    11    13   am
    21    13    14    2
    22    13     2    1
    23     9     4    1
    24    22    17   ar
@<TRIPOS>MOLECULE
*****
 22 24 0 0 0
SMALL
GASTEIGER

@<TRIPOS>ATOM
      1 C         142.2222  144.3146  157.4604 C.3     1  UNL1        0.0420
      2 C         142.0289  144.4196  158.9442 C.3     1  UNL1        0.1909
      3 O         142.9339  143.6664  159.8736 O.3     1  UNL1       -0.3501
      4 C         142.7406  143.7713  161.3574 C.3     1  UNL1        0.1141
      5 C         142.5473  143.8763  162.8412 C.3     1  UNL1        0.0463
      6 C         143.4522  143.1231  163.7705 C.3     1  UNL1        0.0746
      7 N         144.5505  142.2649  163.2161 N.3     1  UNL1       -0.2722
      8 C         144.7438  142.1599  161.7323 C.3     1  UNL1        0.0746
      9 C         143.8388  142.9131  160.8030 C.3     1  UNL1        0.0463
     10 C         141.6423  144.6295  161.9118 C.3     1  UNL1        0.1206
     11 N         140.7374  145.3827  160.9824 N.am    1  UNL1       -0.2734
     12 C         139.6391  146.2409  161.5368 C.3     1  UNL1        0.1150
     13 C         140.9307  145.2778  159.4987 C.2     1  UNL1        0.2529
     14 O         140.0257  146.0310  158.5692 O.2     1  UNL1       -0.2722
     15 C         145.4554  141.5116  164.1455 C.3     1  UNL1        0.0768
     16 C         145.4326  140.0119  164.1628 C.3     1  UNL1        0.0437
     17 C         144.1222  139.2818  164.1630 C.ar    1  UNL1       -0.0208
     18 C         143.5666  138.7377  162.8804 C.ar    1  UNL1       -0.0042
     19 C         142.2564  138.0076  162.8806 C.ar    1  UNL1       -0.0003
     20 C         141.5017  137.8215  164.1635 C.ar    1  UNL1       -0.0000
     21 C         142.0573  138.3655  165.4462 C.ar    1  UNL1       -0.0003
     22 C         143.3676  139.0956  165.4459 C.ar    1  UNL1       -0.0042
@<TRIPOS>BOND
     1     1     2    1
     2     2     3    1
     3     3     4    1
     4     4     5    1
     5     5     6    1
     6     6     7    1
     7     7    15    1
     8    15    16    1
     9    16    17    1
    10    17    18   ar
    11    18    19   ar
    12    19    20   ar
    13    20    21   ar
    14    21    22   ar
    15     7     8    1
    16     8     9    1
    17     4    10    1
    18    10    11    1
    19    11    12    1
    20    11    13   am
    21    13    14    2
    22    13     2    1
    23     9     4    1
    24    22    17   ar
@<TRIPOS>MOLECULE
*****
 22 24 0 0 0
SMALL
GASTEIGER

@<TRIPOS>ATOM
      1 C         142.9694  143.2710  170.6883 C.3     1  UNL1        0.0420
      2 C         142.0278  142.4764  169.8325 C.3     1  UNL1        0.1909
      3 O         142.3041  142.3109  168.3675 O.3     1  UNL1       -0.3501
      4 C         141.3626  141.5163  167.5118 C.3     1  UNL1        0.1141
      5 C         140.4211  140.7217  166.6562 C.3     1  UNL1        0.0463
      6 C         140.6974  140.5561  165.1912 C.3     1  UNL1        0.0746
      7 N         141.9152  141.1852  164.5819 N.3     1  UNL1       -0.2722
      8 C         142.8567  141.9798  165.4375 C.3     1  UNL1        0.0746
      9 C         142.5804  142.1453  166.9025 C.3     1  UNL1        0.0463
     10 C         140.1448  140.8872  168.1212 C.3     1  UNL1        0.1206
     11 N         139.8686  141.0527  169.5862 N.am    1  UNL1       -0.2734
     12 C         138.6508  140.4237  170.1956 C.3     1  UNL1        0.1150
     13 C         140.8101  141.8473  170.4419 C.2     1  UNL1        0.2529
     14 O         140.5338  142.0129  171.9069 O.2     1  UNL1       -0.2722
     15 C         142.1914  141.0197  163.1168 C.3     1  UNL1        0.0768
     16 C         141.6898  142.0405  162.1389 C.3     1  UNL1        0.0437
     17 C         140.4364  142.8097  162.4344 C.ar    1  UNL1       -0.0208
     18 C         139.0970  142.2055  162.1329 C.ar    1  UNL1       -0.0042
     19 C         137.8436  142.9747  162.4284 C.ar    1  UNL1       -0.0003
     20 C         137.9296  144.3481  163.0254 C.ar    1  UNL1       -0.0000
     21 C         139.2690  144.9523  163.3269 C.ar    1  UNL1       -0.0003
     22 C         140.5224  144.1831  163.0314 C.ar    1  UNL1       -0.0042
@<TRIPOS>BOND
     1     1     2    1
     2     2     3    1
     3     3     4    1
     4     4     5    1
     5     5     6    1
     6     6     7    1
     7     7    15    1
     8    15    16    1
     9    16    17    1
    10    17    18   ar
    11    18    19   ar
    12    19    20   ar
    13    20    21   ar
    14    21    22   ar
    15     7     8    1
    16     8     9    1
    17     4    10    1
    18    10    11    1
    19    11    12    1
    20    11    13   am
    21    13    14    2
    22    13     2    1
    23     9     4    1
    24    22    17   ar
@<TRIPOS>MOLECULE
*****
 22 24 0 0 0
SMALL
GASTEIGER

@<TRIPOS>ATOM
      1 C         141.1016  139.3684  170.7152 C.3     1  UNL1        0.0420
      2 C         140.8774  140.5454  169.8126 C.3     1  UNL1        0.1909
      3 O         140.8235  140.3511  168.3262 O.3     1  UNL1       -0.3501
      4 C         140.5993  141.5280  167.4236 C.3     1  UNL1        0.1141
      5 C         140.3751  142.7050  166.5211 C.3     1  UNL1        0.0463
      6 C         140.3212  142.5107  165.0348 C.3     1  UNL1        0.0746
      7 N         140.4915  141.1395  164.4509 N.3     1  UNL1       -0.2722
      8 C         140.7157  139.9626  165.3534 C.3     1  UNL1        0.0746
      9 C         140.7696  140.1569  166.8398 C.3     1  UNL1        0.0463
     10 C         140.4290  142.8992  168.0075 C.3     1  UNL1        0.1206
     11 N         140.4829  143.0934  169.4939 N.am    1  UNL1       -0.2734
     12 C         140.3126  144.4646  170.0778 C.3     1  UNL1        0.1150
     13 C         140.7071  141.9165  170.3964 C.2     1  UNL1        0.2529
     14 O         140.7610  142.1108  171.8829 O.2     1  UNL1       -0.2722
     15 C         140.4376  140.9453  162.9645 C.3     1  UNL1        0.0768
     16 C         141.6664  140.5158  162.2192 C.3     1  UNL1        0.0437
     17 C         143.0255  140.8657  162.7488 C.ar    1  UNL1       -0.0208
     18 C         143.8470  139.8262  163.4518 C.ar    1  UNL1       -0.0042
     19 C         145.2061  140.1762  163.9814 C.ar    1  UNL1       -0.0003
     20 C         145.7436  141.5658  163.8079 C.ar    1  UNL1       -0.0000
     21 C         144.9221  142.6053  163.1049 C.ar    1  UNL1       -0.0003
     22 C         143.5630  142.2553  162.5753 C.ar    1  UNL1       -0.0042
@<TRIPOS>BOND
     1     1     2    1
     2     2     3    1
     3     3     4    1
     4     4     5    1
     5     5     6    1
     6     6     7    1
     7     7    15    1
     8    15    16    1
     9    16    17    1
    10    17    18   ar
    11    18    19   ar
    12    19    20   ar
    13    20    21   ar
    14    21    22   ar
    15     7     8    1
    16     8     9    1
    17     4    10    1
    18    10    11    1
    19    11    12    1
    20    11    13   am
    21    13    14    2
    22    13     2    1
    23     9     4    1
    24    22    17   ar
@<TRIPOS>MOLECULE
*****
 22 24 0 0 0
SMALL
GASTEIGER

@<TRIPOS>ATOM
      1 C         139.6264  146.3261  161.6537 C.3     1  UNL1        0.0420
      2 C         140.6337  145.2146  161.6578 C.3     1  UNL1        0.1909
      3 O         140.9394  144.4842  162.9318 O.3     1  UNL1       -0.3501
      4 C         141.9467  143.3727  162.9360 C.3     1  UNL1        0.1141
      5 C         142.9539  142.2613  162.9401 C.3     1  UNL1        0.0463
      6 C         143.2596  141.5309  164.2141 C.3     1  UNL1        0.0746
      7 N         142.5580  141.9120  165.4839 N.3     1  UNL1       -0.2722
      8 C         141.5508  143.0234  165.4798 C.3     1  UNL1        0.0746
      9 C         141.2451  143.7538  164.2058 C.3     1  UNL1        0.0463
     10 C         142.6483  142.9916  161.6661 C.3     1  UNL1        0.1206
     11 N         142.3425  143.7221  160.3921 N.am    1  UNL1       -0.2734
     12 C         143.0441  143.3410  159.1222 C.3     1  UNL1        0.1150
     13 C         141.3353  144.8335  160.3880 C.2     1  UNL1        0.2529
     14 O         141.0295  145.5639  159.1139 O.2     1  UNL1       -0.2722
     15 C         142.8638  141.1816  166.7580 C.3     1  UNL1        0.0768
     16 C         142.4683  139.7428  166.9111 C.3     1  UNL1        0.0437
     17 C         141.2054  139.2405  166.2762 C.ar    1  UNL1       -0.0208
     18 C         139.8746  139.7360  166.7593 C.ar    1  UNL1       -0.0042
     19 C         138.6119  139.2336  166.1244 C.ar    1  UNL1       -0.0003
     20 C         138.6799  138.2358  165.0065 C.ar    1  UNL1       -0.0000
     21 C         140.0107  137.7403  164.5234 C.ar    1  UNL1       -0.0003
     22 C         141.2735  138.2427  165.1583 C.ar    1  UNL1       -0.0042
@<TRIPOS>BOND
     1     1     2    1
     2     2     3    1
     3     3     4    1
     4     4     5    1
     5     5     6    1
     6     6     7    1
     7     7    15    1
     8    15    16    1
     9    16    17    1
    10    17    18   ar
    11    18    19   ar
    12    19    20   ar
    13    20    21   ar
    14    21    22   ar
    15     7     8    1
    16     8     9    1
    17     4    10    1
    18    10    11    1
    19    11    12    1
    20    11    13   am
    21    13    14    2
    22    13     2    1
    23     9     4    1
    24    22    17   ar
@<TRIPOS>MOLECULE
*****
 22 24 0 0 0
SMALL
GASTEIGER

@<TRIPOS>ATOM
      1 C         144.1131  142.9012  157.9961 C.3     1  UNL1        0.0420
      2 C         142.9541  143.7770  158.3701 C.3     1  UNL1        0.1909
      3 O         142.5090  143.8618  159.8000 O.3     1  UNL1       -0.3501
      4 C         141.3500  144.7377  160.1740 C.3     1  UNL1        0.1141
      5 C         140.1912  145.6135  160.5480 C.3     1  UNL1        0.0463
      6 C         139.7460  145.6983  161.9779 C.3     1  UNL1        0.0746
      7 N         140.4597  144.9073  163.0338 N.3     1  UNL1       -0.2722
      8 C         141.6186  144.0314  162.6598 C.3     1  UNL1        0.0746
      9 C         142.0637  143.9467  161.2299 C.3     1  UNL1        0.0463
     10 C         140.6363  145.5287  159.1181 C.3     1  UNL1        0.1206
     11 N         141.0815  145.4439  157.6882 N.am    1  UNL1       -0.2734
     12 C         140.3678  146.2349  156.6323 C.3     1  UNL1        0.1150
     13 C         142.2404  144.5681  157.3142 C.2     1  UNL1        0.2529
     14 O         142.6857  144.4832  155.8843 O.2     1  UNL1       -0.2722
     15 C         140.0145  144.9921  164.4637 C.3     1  UNL1        0.0768
     16 C         138.7494  144.3125  164.8969 C.3     1  UNL1        0.0437
     17 C         138.4713  142.9020  164.4689 C.ar    1  UNL1       -0.0208
     18 C         138.9972  141.7547  165.2795 C.ar    1  UNL1       -0.0042
     19 C         138.7191  140.3443  164.8516 C.ar    1  UNL1       -0.0003
     20 C         137.9150  140.0811  163.6129 C.ar    1  UNL1       -0.0000
     21 C         137.3891  141.2283  162.8023 C.ar    1  UNL1       -0.0003
     22 C         137.6672  142.6387  163.2303 C.ar    1  UNL1       -0.0042
@<TRIPOS>BOND
     1     1     2    1
     2     2     3    1
     3     3     4    1
     4     4     5    1
     5     5     6    1
     6     6     7    1
     7     7    15    1
     8    15    16    1
     9    16    17    1
    10    17    18   ar
    11    18    19   ar
    12    19    20   ar
    13    20    21   ar
    14    21    22   ar
    15     7     8    1
    16     8     9    1
    17     4    10    1
    18    10    11    1
    19    11    12    1
    20    11    13   am
    21    13    14    2
    22    13     2    1
    23     9     4    1
    24    22    17   ar
