@<TRIPOS>MOLECULE
*****
 42 48 0 0 0
SMALL
GASTEIGER

@<TRIPOS>ATOM
      1 C         139.4285  143.1105  163.4918 C.2     1  UNL1        0.0775
      2 C         140.2754  143.7390  162.4252 C.2     1  UNL1        0.0611
      3 C         139.6178  145.0204  162.0062 C.2     1  UNL1        0.2520
      4 O         140.1245  145.9714  160.9628 O.2     1  UNL1       -0.2697
      5 N         138.3644  145.1838  162.8139 N.am    1  UNL1       -0.2482
      6 C         138.2475  144.0034  163.7320 C.2     1  UNL1        0.2534
      7 O         137.1433  143.7588  164.7174 O.2     1  UNL1       -0.2697
      8 H         137.7300  145.9341  162.7523 H       1  UNL1        0.1581
      9 N         139.9361  139.4458  164.6655 N.ar    1  UNL1       -0.2509
     10 N         139.5334  140.4425  163.6195 N.ar    1  UNL1       -0.1692
     11 C         139.7128  141.8162  164.1947 C.ar    1  UNL1        0.1068
     12 C         140.2264  141.6683  165.5962 C.ar    1  UNL1        0.0368
     13 C         140.5862  142.6784  166.6451 C.ar    1  UNL1        0.0030
     14 C         141.0840  142.2235  167.9850 C.ar    1  UNL1        0.0001
     15 C         141.2220  140.7586  168.2760 C.ar    1  UNL1        0.0015
     16 C         140.8622  139.7485  167.2271 C.ar    1  UNL1        0.0188
     17 C         140.3644  140.2034  165.8873 C.ar    1  UNL1        0.0793
     18 C         139.9143  137.9533  164.5161 C.3     1  UNL1        0.1289
     19 C         141.1090  137.2379  163.9585 C.3     1  UNL1        0.0437
     20 C         141.7356  137.7086  162.6796 C.3     1  UNL1        0.0742
     21 C         143.5382  139.0578  163.9758 C.3     1  UNL1        0.0897
     22 N         143.0583  138.4155  162.7082 N.3     1  UNL1       -0.2703
     23 C         143.9012  138.4799  161.4691 C.3     1  UNL1        0.0897
     24 C         141.5552  143.1837  161.8742 C.ar    1  UNL1        0.0235
     25 C         141.8181  142.8307  160.4402 C.ar    1  UNL1        0.0802
     26 N         143.2223  142.3127  160.3403 N.ar    1  UNL1       -0.3049
     27 C         143.8272  142.3455  161.7124 C.ar    1  UNL1        0.0640
     28 C         145.1832  141.9548  162.2212 C.ar    1  UNL1        0.0175
     29 C         145.5088  142.1024  163.6780 C.ar    1  UNL1        0.0015
     30 C         144.4785  142.6407  164.6261 C.ar    1  UNL1        0.0001
     31 C         143.1226  143.0314  164.1173 C.ar    1  UNL1        0.0015
     32 C         142.7970  142.8838  162.6606 C.ar    1  UNL1        0.0177
     33 C         143.9022  141.8441  159.0880 C.ar    1  UNL1        0.0640
     34 C         143.3525  140.6724  158.3296 C.ar    1  UNL1        0.0175
     35 C         144.0323  140.2038  157.0773 C.ar    1  UNL1        0.0015
     36 C         145.2619  140.9067  156.5834 C.ar    1  UNL1        0.0001
     37 C         145.9417  140.4382  155.3312 C.ar    1  UNL1        0.0000
     38 C         147.1713  141.1411  154.8373 C.ar    1  UNL1        0.0000
     39 C         147.7211  142.3127  155.5956 C.ar    1  UNL1        0.0000
     40 C         147.0411  142.7813  156.8479 C.ar    1  UNL1        0.0000
     41 C         145.8116  142.0784  157.3418 C.ar    1  UNL1        0.0014
     42 C         145.1317  142.5470  158.5941 C.ar    1  UNL1        0.0175
@<TRIPOS>BOND
     1    21    22    1
     2    22    23    1
     3    22    20    1
     4    20    19    1
     5    19    18    1
     6    18     9    1
     7     9    10   ar
     8    10    11   ar
     9    11     1    1
    10     1     2    2
    11     2    24    1
    12    24    25   ar
    13    25    26   ar
    14    26    33    1
    15    33    34   ar
    16    34    35   ar
    17    35    36   ar
    18    36    37   ar
    19    37    38   ar
    20    38    39   ar
    21    39    40   ar
    22    40    41   ar
    23    41    42   ar
    24    26    27   ar
    25    27    28   ar
    26    28    29   ar
    27    29    30   ar
    28    30    31   ar
    29    31    32   ar
    30     2     3    1
    31     3     4    2
    32     3     5   am
    33     5     6   am
    34     6     7    2
    35    11    12   ar
    36    12    13   ar
    37    13    14   ar
    38    14    15   ar
    39    15    16   ar
    40    16    17   ar
    41    17     9   ar
    42     6     1    1
    43    17    12   ar
    44    32    24   ar
    45    42    33   ar
    46    32    27   ar
    47    41    36   ar
    48     5     8    1
@<TRIPOS>MOLECULE
*****
 42 48 0 0 0
SMALL
GASTEIGER

@<TRIPOS>ATOM
      1 C         143.0888  141.1936  160.4805 C.2     1  UNL1        0.0775
      2 C         142.8929  139.8626  161.1438 C.2     1  UNL1        0.0611
      3 C         143.5054  138.8123  160.2654 C.2     1  UNL1        0.2520
      4 O         143.5379  137.3388  160.5443 O.2     1  UNL1       -0.2697
      5 N         144.0799  139.4942  159.0592 N.am    1  UNL1       -0.2482
      6 C         143.8224  140.9659  159.1922 C.2     1  UNL1        0.2534
      7 O         144.2274  142.0242  158.2093 O.2     1  UNL1       -0.2697
      8 H         144.5444  139.0533  158.3115 H       1  UNL1        0.1581
      9 N         141.4234  144.6079  161.2771 N.ar    1  UNL1       -0.2509
     10 N         141.5470  143.3766  160.4294 N.ar    1  UNL1       -0.1692
     11 C         142.6313  142.5195  161.0123 C.ar    1  UNL1        0.1068
     12 C         143.1778  143.2211  162.2202 C.ar    1  UNL1        0.0368
     13 C         144.2587  142.8514  163.1923 C.ar    1  UNL1        0.0030
     14 C         144.5932  143.7724  164.3280 C.ar    1  UNL1        0.0001
     15 C         143.8467  145.0631  164.4917 C.ar    1  UNL1        0.0015
     16 C         142.7657  145.4328  163.5196 C.ar    1  UNL1        0.0188
     17 C         142.4313  144.5118  162.3839 C.ar    1  UNL1        0.0793
     18 C         140.4609  145.7371  161.0568 C.3     1  UNL1        0.1289
     19 C         139.3164  145.9428  162.0043 C.3     1  UNL1        0.0437
     20 C         138.5699  144.7602  162.5466 C.3     1  UNL1        0.0742
     21 C         139.5731  142.6911  163.7559 C.3     1  UNL1        0.0897
     22 N         139.0371  144.0911  163.8052 N.3     1  UNL1       -0.2703
     23 C         138.9683  144.8222  165.1132 C.3     1  UNL1        0.0897
     24 C         142.2052  139.6237  162.4553 C.ar    1  UNL1        0.0235
     25 C         142.7007  140.0585  163.8027 C.ar    1  UNL1        0.0802
     26 N         141.7030  139.6117  164.8298 N.ar    1  UNL1       -0.3049
     27 C         140.5909  138.9008  164.1172 C.ar    1  UNL1        0.0640
     28 C         139.3356  138.2475  164.6150 C.ar    1  UNL1        0.0175
     29 C         138.3908  137.6018  163.6453 C.ar    1  UNL1        0.0015
     30 C         138.7012  137.6093  162.1778 C.ar    1  UNL1        0.0001
     31 C         139.9564  138.2625  161.6800 C.ar    1  UNL1        0.0015
     32 C         140.9012  138.9082  162.6497 C.ar    1  UNL1        0.0177
     33 C         141.8002  139.8363  166.3097 C.ar    1  UNL1        0.0640
     34 C         142.7384  139.0056  167.1343 C.ar    1  UNL1        0.0175
     35 C         142.8357  139.2302  168.6142 C.ar    1  UNL1        0.0015
     36 C         141.9949  140.2854  169.2696 C.ar    1  UNL1        0.0001
     37 C         142.0921  140.5101  170.7494 C.ar    1  UNL1        0.0000
     38 C         141.2513  141.5653  171.4048 C.ar    1  UNL1        0.0000
     39 C         140.3132  142.3960  170.5802 C.ar    1  UNL1        0.0000
     40 C         140.2159  142.1713  169.1003 C.ar    1  UNL1        0.0000
     41 C         141.0568  141.1161  168.4449 C.ar    1  UNL1        0.0014
     42 C         140.9594  140.8916  166.9650 C.ar    1  UNL1        0.0175
@<TRIPOS>BOND
     1    21    22    1
     2    22    23    1
     3    22    20    1
     4    20    19    1
     5    19    18    1
     6    18     9    1
     7     9    10   ar
     8    10    11   ar
     9    11     1    1
    10     1     2    2
    11     2    24    1
    12    24    25   ar
    13    25    26   ar
    14    26    33    1
    15    33    34   ar
    16    34    35   ar
    17    35    36   ar
    18    36    37   ar
    19    37    38   ar
    20    38    39   ar
    21    39    40   ar
    22    40    41   ar
    23    41    42   ar
    24    26    27   ar
    25    27    28   ar
    26    28    29   ar
    27    29    30   ar
    28    30    31   ar
    29    31    32   ar
    30     2     3    1
    31     3     4    2
    32     3     5   am
    33     5     6   am
    34     6     7    2
    35    11    12   ar
    36    12    13   ar
    37    13    14   ar
    38    14    15   ar
    39    15    16   ar
    40    16    17   ar
    41    17     9   ar
    42     6     1    1
    43    17    12   ar
    44    32    24   ar
    45    42    33   ar
    46    32    27   ar
    47    41    36   ar
    48     5     8    1
@<TRIPOS>MOLECULE
*****
 42 48 0 0 0
SMALL
GASTEIGER

@<TRIPOS>ATOM
      1 C         139.4098  143.1762  163.5583 C.2     1  UNL1        0.0775
      2 C         140.2429  143.7438  162.4476 C.2     1  UNL1        0.0611
      3 C         139.6198  145.0379  162.0155 C.2     1  UNL1        0.2520
      4 O         140.1260  145.9412  160.9303 O.2     1  UNL1       -0.2697
      5 N         138.4014  145.2702  162.8592 N.am    1  UNL1       -0.2482
      6 C         138.2717  144.1195  163.8127 C.2     1  UNL1        0.2534
      7 O         137.1932  143.9432  164.8401 O.2     1  UNL1       -0.2697
      8 H         137.7937  146.0422  162.7978 H       1  UNL1        0.1581
      9 N         139.8515  139.5263  164.8028 N.ar    1  UNL1       -0.2509
     10 N         139.4707  140.5097  163.7362 N.ar    1  UNL1       -0.1692
     11 C         139.6692  141.8908  164.2868 C.ar    1  UNL1        0.1068
     12 C         140.1728  141.7609  165.6937 C.ar    1  UNL1        0.0368
     13 C         140.5433  142.7845  166.7257 C.ar    1  UNL1        0.0030
     14 C         141.0264  142.3467  168.0766 C.ar    1  UNL1        0.0001
     15 C         141.1391  140.8854  168.3956 C.ar    1  UNL1        0.0015
     16 C         140.7686  139.8618  167.3636 C.ar    1  UNL1        0.0188
     17 C         140.2854  140.2996  166.0127 C.ar    1  UNL1        0.0793
     18 C         139.8063  138.0319  164.6811 C.3     1  UNL1        0.1289
     19 C         141.0134  137.2817  164.2012 C.3     1  UNL1        0.0437
     20 C         141.6585  137.6530  162.8990 C.3     1  UNL1        0.0742
     21 C         143.4805  139.0502  164.1146 C.3     1  UNL1        0.0897
     22 N         142.9972  138.3295  162.8911 N.3     1  UNL1       -0.2703
     23 C         143.8527  138.2854  161.6598 C.3     1  UNL1        0.0897
     24 C         141.4818  143.1257  161.8704 C.ar    1  UNL1        0.0235
     25 C         141.6673  142.6859  160.4483 C.ar    1  UNL1        0.0802
     26 N         143.0528  142.1273  160.3128 N.ar    1  UNL1       -0.3049
     27 C         143.7236  142.2218  161.6512 C.ar    1  UNL1        0.0640
     28 C         145.0931  141.8257  162.1178 C.ar    1  UNL1        0.0175
     29 C         145.4916  142.0467  163.5469 C.ar    1  UNL1        0.0015
     30 C         144.5207  142.6637  164.5095 C.ar    1  UNL1        0.0001
     31 C         143.1512  143.0598  164.0429 C.ar    1  UNL1        0.0015
     32 C         142.7527  142.8388  162.6138 C.ar    1  UNL1        0.0177
     33 C         143.6608  141.5718  159.0592 C.ar    1  UNL1        0.0640
     34 C         144.7981  142.2899  158.3952 C.ar    1  UNL1        0.0175
     35 C         145.4062  141.7344  157.1415 C.ar    1  UNL1        0.0015
     36 C         144.8771  140.4607  156.5519 C.ar    1  UNL1        0.0001
     37 C         145.4851  139.9051  155.2983 C.ar    1  UNL1        0.0000
     38 C         144.9560  138.6314  154.7086 C.ar    1  UNL1        0.0000
     39 C         143.8187  137.9132  155.3726 C.ar    1  UNL1        0.0000
     40 C         143.2107  138.4689  156.6263 C.ar    1  UNL1        0.0000
     41 C         143.7398  139.7426  157.2160 C.ar    1  UNL1        0.0014
     42 C         143.1317  140.2981  158.4696 C.ar    1  UNL1        0.0175
@<TRIPOS>BOND
     1    21    22    1
     2    22    23    1
     3    22    20    1
     4    20    19    1
     5    19    18    1
     6    18     9    1
     7     9    10   ar
     8    10    11   ar
     9    11     1    1
    10     1     2    2
    11     2    24    1
    12    24    25   ar
    13    25    26   ar
    14    26    33    1
    15    33    34   ar
    16    34    35   ar
    17    35    36   ar
    18    36    37   ar
    19    37    38   ar
    20    38    39   ar
    21    39    40   ar
    22    40    41   ar
    23    41    42   ar
    24    26    27   ar
    25    27    28   ar
    26    28    29   ar
    27    29    30   ar
    28    30    31   ar
    29    31    32   ar
    30     2     3    1
    31     3     4    2
    32     3     5   am
    33     5     6   am
    34     6     7    2
    35    11    12   ar
    36    12    13   ar
    37    13    14   ar
    38    14    15   ar
    39    15    16   ar
    40    16    17   ar
    41    17     9   ar
    42     6     1    1
    43    17    12   ar
    44    32    24   ar
    45    42    33   ar
    46    32    27   ar
    47    41    36   ar
    48     5     8    1
@<TRIPOS>MOLECULE
*****
 42 48 0 0 0
SMALL
GASTEIGER

@<TRIPOS>ATOM
      1 C         139.7609  143.3743  164.4623 C.2     1  UNL1        0.0775
      2 C         140.5139  143.3761  163.1650 C.2     1  UNL1        0.0611
      3 C         140.4717  144.7675  162.6064 C.2     1  UNL1        0.2520
      4 O         141.0986  145.2211  161.3214 O.2     1  UNL1       -0.2697
      5 N         139.6925  145.6257  163.5584 N.am    1  UNL1       -0.2482
      6 C         139.2532  144.7647  164.7054 C.2     1  UNL1        0.2534
      7 O         138.4477  145.2149  165.8879 O.2     1  UNL1       -0.2697
      8 H         139.5028  146.5856  163.4495 H       1  UNL1        0.1581
      9 N         138.7330  140.0876  166.2529 N.ar    1  UNL1       -0.2509
     10 N         138.6239  141.0406  165.0998 N.ar    1  UNL1       -0.1692
     11 C         139.5521  142.1901  165.3590 C.ar    1  UNL1        0.1068
     12 C         140.2350  141.9473  166.6723 C.ar    1  UNL1        0.0368
     13 C         141.2523  142.7417  167.4365 C.ar    1  UNL1        0.0030
     14 C         141.7634  142.2366  168.7532 C.ar    1  UNL1        0.0001
     15 C         141.2573  140.9372  169.3057 C.ar    1  UNL1        0.0015
     16 C         140.2399  140.1429  168.5414 C.ar    1  UNL1        0.0188
     17 C         139.7288  140.6479  167.2248 C.ar    1  UNL1        0.0793
     18 C         137.9789  138.8001  166.4071 C.3     1  UNL1        0.1289
     19 C         138.4868  137.5502  165.7515 C.3     1  UNL1        0.0437
     20 C         138.9751  137.5922  164.3338 C.3     1  UNL1        0.0742
     21 C         141.3939  138.1421  165.1065 C.3     1  UNL1        0.0897
     22 N         140.4463  137.6588  164.0490 N.3     1  UNL1       -0.2703
     23 C         140.9699  137.2419  162.7066 C.3     1  UNL1        0.0897
     24 C         141.1905  142.1939  162.5367 C.ar    1  UNL1        0.0235
     25 C         140.7936  141.5315  161.2507 C.ar    1  UNL1        0.0802
     26 N         141.7405  140.3948  161.0033 N.ar    1  UNL1       -0.3049
     27 C         142.7226  140.3546  162.1363 C.ar    1  UNL1        0.0640
     28 C         143.8826  139.4492  162.4276 C.ar    1  UNL1        0.0175
     29 C         144.7026  139.6557  163.6665 C.ar    1  UNL1        0.0015
     30 C         144.3626  140.7676  164.6142 C.ar    1  UNL1        0.0001
     31 C         143.2027  141.6730  164.3230 C.ar    1  UNL1        0.0015
     32 C         142.3828  141.4665  163.0841 C.ar    1  UNL1        0.0177
     33 C         141.7106  139.4620  159.8290 C.ar    1  UNL1        0.0640
     34 C         142.8438  138.5058  159.6017 C.ar    1  UNL1        0.0175
     35 C         142.8140  137.5730  158.4274 C.ar    1  UNL1        0.0015
     36 C         141.6510  137.5963  157.4804 C.ar    1  UNL1        0.0001
     37 C         141.6211  136.6635  156.3061 C.ar    1  UNL1        0.0000
     38 C         140.4581  136.6868  155.3591 C.ar    1  UNL1        0.0000
     39 C         139.3249  137.6430  155.5863 C.ar    1  UNL1        0.0000
     40 C         139.3548  138.5758  156.7607 C.ar    1  UNL1        0.0000
     41 C         140.5178  138.5525  157.7077 C.ar    1  UNL1        0.0014
     42 C         140.5476  139.4853  158.8820 C.ar    1  UNL1        0.0175
@<TRIPOS>BOND
     1    21    22    1
     2    22    23    1
     3    22    20    1
     4    20    19    1
     5    19    18    1
     6    18     9    1
     7     9    10   ar
     8    10    11   ar
     9    11     1    1
    10     1     2    2
    11     2    24    1
    12    24    25   ar
    13    25    26   ar
    14    26    33    1
    15    33    34   ar
    16    34    35   ar
    17    35    36   ar
    18    36    37   ar
    19    37    38   ar
    20    38    39   ar
    21    39    40   ar
    22    40    41   ar
    23    41    42   ar
    24    26    27   ar
    25    27    28   ar
    26    28    29   ar
    27    29    30   ar
    28    30    31   ar
    29    31    32   ar
    30     2     3    1
    31     3     4    2
    32     3     5   am
    33     5     6   am
    34     6     7    2
    35    11    12   ar
    36    12    13   ar
    37    13    14   ar
    38    14    15   ar
    39    15    16   ar
    40    16    17   ar
    41    17     9   ar
    42     6     1    1
    43    17    12   ar
    44    32    24   ar
    45    42    33   ar
    46    32    27   ar
    47    41    36   ar
    48     5     8    1
@<TRIPOS>MOLECULE
*****
 42 48 0 0 0
SMALL
GASTEIGER

@<TRIPOS>ATOM
      1 C         139.4816  143.1228  163.5313 C.2     1  UNL1        0.0775
      2 C         140.2494  143.6806  162.3697 C.2     1  UNL1        0.0611
      3 C         139.5045  144.8754  161.8524 C.2     1  UNL1        0.2520
      4 O         139.9156  145.7381  160.6963 O.2     1  UNL1       -0.2697
      5 N         138.2762  145.0560  162.6944 N.am    1  UNL1       -0.2482
      6 C         138.2621  143.9728  163.7319 C.2     1  UNL1        0.2534
      7 O         137.2127  143.7745  164.7852 O.2     1  UNL1       -0.2697
      8 H         137.5984  145.7615  162.5851 H       1  UNL1        0.1581
      9 N         140.5618  140.5236  166.2038 N.ar    1  UNL1       -0.2509
     10 N         140.2612  141.9353  165.7956 N.ar    1  UNL1       -0.1692
     11 C         139.8658  141.9252  164.3487 C.ar    1  UNL1        0.1068
     12 C         139.9221  140.5072  163.8627 C.ar    1  UNL1        0.0368
     13 C         139.6372  139.8929  162.5243 C.ar    1  UNL1        0.0030
     14 C         139.7824  138.4123  162.3324 C.ar    1  UNL1        0.0001
     15 C         140.2126  137.5460  163.4789 C.ar    1  UNL1        0.0015
     16 C         140.4975  138.1604  164.8174 C.ar    1  UNL1        0.0188
     17 C         140.3522  139.6410  165.0092 C.ar    1  UNL1        0.0793
     18 C         140.9959  140.0735  167.5673 C.3     1  UNL1        0.1289
     19 C         140.1108  140.3153  168.7540 C.3     1  UNL1        0.0437
     20 C         140.6408  141.0543  169.9468 C.3     1  UNL1        0.0742
     21 C         140.4012  143.6128  169.5634 C.3     1  UNL1        0.0897
     22 N         141.2672  142.4063  169.7739 N.3     1  UNL1       -0.2703
     23 C         142.7596  142.5517  169.8116 C.3     1  UNL1        0.0897
     24 C         141.5362  143.1388  161.8216 C.ar    1  UNL1        0.0235
     25 C         141.8153  142.8151  160.3837 C.ar    1  UNL1        0.0802
     26 N         143.2214  142.3018  160.2886 N.ar    1  UNL1       -0.3049
     27 C         143.8115  142.3081  161.6676 C.ar    1  UNL1        0.0640
     28 C         145.1627  141.9097  162.1831 C.ar    1  UNL1        0.0175
     29 C         145.4723  142.0286  163.6460 C.ar    1  UNL1        0.0015
     30 C         144.4308  142.5459  164.5934 C.ar    1  UNL1        0.0001
     31 C         143.0796  142.9443  164.0780 C.ar    1  UNL1        0.0015
     32 C         142.7700  142.8254  162.6151 C.ar    1  UNL1        0.0177
     33 C         143.9157  141.8597  159.0346 C.ar    1  UNL1        0.0640
     34 C         143.3756  140.7037  158.2459 C.ar    1  UNL1        0.0175
     35 C         144.0698  140.2615  156.9919 C.ar    1  UNL1        0.0015
     36 C         145.3042  140.9753  156.5265 C.ar    1  UNL1        0.0001
     37 C         145.9985  140.5332  155.2726 C.ar    1  UNL1        0.0000
     38 C         147.2330  141.2470  154.8072 C.ar    1  UNL1        0.0000
     39 C         147.7732  142.4030  155.5958 C.ar    1  UNL1        0.0000
     40 C         147.0789  142.8451  156.8499 C.ar    1  UNL1        0.0000
     41 C         145.8444  142.1313  157.3152 C.ar    1  UNL1        0.0014
     42 C         145.1502  142.5735  158.5692 C.ar    1  UNL1        0.0175
@<TRIPOS>BOND
     1    21    22    1
     2    22    23    1
     3    22    20    1
     4    20    19    1
     5    19    18    1
     6    18     9    1
     7     9    10   ar
     8    10    11   ar
     9    11     1    1
    10     1     2    2
    11     2    24    1
    12    24    25   ar
    13    25    26   ar
    14    26    33    1
    15    33    34   ar
    16    34    35   ar
    17    35    36   ar
    18    36    37   ar
    19    37    38   ar
    20    38    39   ar
    21    39    40   ar
    22    40    41   ar
    23    41    42   ar
    24    26    27   ar
    25    27    28   ar
    26    28    29   ar
    27    29    30   ar
    28    30    31   ar
    29    31    32   ar
    30     2     3    1
    31     3     4    2
    32     3     5   am
    33     5     6   am
    34     6     7    2
    35    11    12   ar
    36    12    13   ar
    37    13    14   ar
    38    14    15   ar
    39    15    16   ar
    40    16    17   ar
    41    17     9   ar
    42     6     1    1
    43    17    12   ar
    44    32    24   ar
    45    42    33   ar
    46    32    27   ar
    47    41    36   ar
    48     5     8    1
@<TRIPOS>MOLECULE
*****
 42 48 0 0 0
SMALL
GASTEIGER

@<TRIPOS>ATOM
      1 C         142.9238  139.9700  164.1048 C.2     1  UNL1        0.0775
      2 C         143.5172  141.1363  163.3718 C.2     1  UNL1        0.0611
      3 C         144.9957  141.1392  163.6247 C.2     1  UNL1        0.2520
      4 O         145.9809  142.1324  163.0833 O.2     1  UNL1       -0.2697
      5 N         145.3161  139.9746  164.5141 N.am    1  UNL1       -0.2482
      6 C         144.0356  139.2520  164.8108 C.2     1  UNL1        0.2534
      7 O         143.8920  138.0265  165.6637 O.2     1  UNL1       -0.2697
      8 H         146.2099  139.7278  164.8450 H       1  UNL1        0.1581
      9 N         139.2682  138.8544  163.4282 N.ar    1  UNL1       -0.2509
     10 N         140.6645  139.1262  162.9522 N.ar    1  UNL1       -0.1692
     11 C         141.4733  139.5885  164.1278 C.ar    1  UNL1        0.1068
     12 C         140.5769  139.6025  165.3304 C.ar    1  UNL1        0.0368
     13 C         140.8256  139.9697  166.7633 C.ar    1  UNL1        0.0030
     14 C         139.7114  139.8832  167.7639 C.ar    1  UNL1        0.0001
     15 C         138.3486  139.4295  167.3316 C.ar    1  UNL1        0.0015
     16 C         138.1000  139.0623  165.8987 C.ar    1  UNL1        0.0188
     17 C         139.2141  139.1488  164.8981 C.ar    1  UNL1        0.0793
     18 C         138.1265  138.3728  162.5829 C.3     1  UNL1        0.1289
     19 C         138.0747  138.7196  161.1244 C.3     1  UNL1        0.0437
     20 C         137.3544  139.9552  160.6724 C.3     1  UNL1        0.0742
     21 C         137.8436  141.9071  162.3157 C.3     1  UNL1        0.0897
     22 N         137.9426  141.3080  160.9441 N.3     1  UNL1       -0.2703
     23 C         138.6298  142.0617  159.8443 C.3     1  UNL1        0.0897
     24 C         142.7644  142.1261  162.5330 C.ar    1  UNL1        0.0235
     25 C         142.9470  142.3546  161.0618 C.ar    1  UNL1        0.0802
     26 N         141.9922  143.4309  160.6377 N.ar    1  UNL1       -0.3049
     27 C         141.2193  143.8676  161.8468 C.ar    1  UNL1        0.0640
     28 C         140.1426  144.8954  162.0326 C.ar    1  UNL1        0.0175
     29 C         139.5432  145.1168  163.3897 C.ar    1  UNL1        0.0015
     30 C         140.0205  144.3104  164.5611 C.ar    1  UNL1        0.0001
     31 C         141.0971  143.2826  164.3753 C.ar    1  UNL1        0.0015
     32 C         141.6965  143.0613  163.0182 C.ar    1  UNL1        0.0177
     33 C         141.8373  143.9749  159.2485 C.ar    1  UNL1        0.0640
     34 C         142.7162  143.4698  158.1429 C.ar    1  UNL1        0.0175
     35 C         142.5614  144.0138  156.7536 C.ar    1  UNL1        0.0015
     36 C         141.5276  145.0630  156.4699 C.ar    1  UNL1        0.0001
     37 C         141.3728  145.6070  155.0807 C.ar    1  UNL1        0.0000
     38 C         140.3390  146.6562  154.7970 C.ar    1  UNL1        0.0000
     39 C         139.4600  147.1614  155.9025 C.ar    1  UNL1        0.0000
     40 C         139.6149  146.6173  157.2918 C.ar    1  UNL1        0.0000
     41 C         140.6487  145.5681  157.5756 C.ar    1  UNL1        0.0014
     42 C         140.8035  145.0241  158.9648 C.ar    1  UNL1        0.0175
@<TRIPOS>BOND
     1    21    22    1
     2    22    23    1
     3    22    20    1
     4    20    19    1
     5    19    18    1
     6    18     9    1
     7     9    10   ar
     8    10    11   ar
     9    11     1    1
    10     1     2    2
    11     2    24    1
    12    24    25   ar
    13    25    26   ar
    14    26    33    1
    15    33    34   ar
    16    34    35   ar
    17    35    36   ar
    18    36    37   ar
    19    37    38   ar
    20    38    39   ar
    21    39    40   ar
    22    40    41   ar
    23    41    42   ar
    24    26    27   ar
    25    27    28   ar
    26    28    29   ar
    27    29    30   ar
    28    30    31   ar
    29    31    32   ar
    30     2     3    1
    31     3     4    2
    32     3     5   am
    33     5     6   am
    34     6     7    2
    35    11    12   ar
    36    12    13   ar
    37    13    14   ar
    38    14    15   ar
    39    15    16   ar
    40    16    17   ar
    41    17     9   ar
    42     6     1    1
    43    17    12   ar
    44    32    24   ar
    45    42    33   ar
    46    32    27   ar
    47    41    36   ar
    48     5     8    1
@<TRIPOS>MOLECULE
*****
 42 48 0 0 0
SMALL
GASTEIGER

@<TRIPOS>ATOM
      1 C         140.4188  138.9637  163.5085 C.2     1  UNL1        0.0775
      2 C         139.3885  139.5183  162.5700 C.2     1  UNL1        0.0611
      3 C         138.4175  138.4217  162.2470 C.2     1  UNL1        0.2520
      4 O         137.2256  138.5372  161.3436 O.2     1  UNL1       -0.2697
      5 N         138.8475  137.1893  162.9859 N.am    1  UNL1       -0.2482
      6 C         140.0844  137.5242  163.7656 C.2     1  UNL1        0.2534
      7 O         140.8522  136.5847  164.6476 O.2     1  UNL1       -0.2697
      8 H         138.3971  136.3141  162.9632 H       1  UNL1        0.1581
      9 N         143.7913  140.6662  164.3990 N.ar    1  UNL1       -0.2509
     10 N         142.9503  139.8215  163.4883 N.ar    1  UNL1       -0.1692
     11 C         141.5796  139.7164  164.0883 C.ar    1  UNL1        0.1068
     12 C         141.5734  140.4961  165.3697 C.ar    1  UNL1        0.0368
     13 C         140.4996  140.7474  166.3865 C.ar    1  UNL1        0.0030
     14 C         140.7928  141.5857  167.5953 C.ar    1  UNL1        0.0001
     15 C         142.1597  142.1727  167.7874 C.ar    1  UNL1        0.0015
     16 C         143.2335  141.9214  166.7706 C.ar    1  UNL1        0.0188
     17 C         142.9403  141.0831  165.5617 C.ar    1  UNL1        0.0793
     18 C         145.2307  141.0301  164.1845 C.3     1  UNL1        0.1289
     19 C         145.6184  141.9092  163.0327 C.3     1  UNL1        0.0437
     20 C         144.8516  143.1690  162.7594 C.3     1  UNL1        0.0742
     21 C         143.3187  142.4686  160.7821 C.3     1  UNL1        0.0897
     22 N         143.4905  143.0977  162.1329 N.3     1  UNL1       -0.2703
     23 C         142.3013  143.6554  162.8572 C.3     1  UNL1        0.0897
     24 C         139.3382  140.9231  162.0463 C.ar    1  UNL1        0.0235
     25 C         139.7783  141.3727  160.6846 C.ar    1  UNL1        0.0802
     26 N         139.5510  142.8523  160.5891 N.ar    1  UNL1       -0.3049
     27 C         138.9704  143.3171  161.8918 C.ar    1  UNL1        0.0640
     28 C         138.5444  144.6721  162.3743 C.ar    1  UNL1        0.0175
     29 C         137.9870  144.8346  163.7573 C.ar    1  UNL1        0.0015
     30 C         137.8554  143.6423  164.6579 C.ar    1  UNL1        0.0001
     31 C         138.2814  142.2874  164.1754 C.ar    1  UNL1        0.0015
     32 C         138.8388  142.1248  162.7924 C.ar    1  UNL1        0.0177
     33 C         139.8516  143.7156  159.3999 C.ar    1  UNL1        0.0640
     34 C         140.7626  144.8987  159.5429 C.ar    1  UNL1        0.0175
     35 C         141.0632  145.7620  158.3537 C.ar    1  UNL1        0.0015
     36 C         140.4528  145.4423  157.0214 C.ar    1  UNL1        0.0001
     37 C         140.7533  146.3056  155.8321 C.ar    1  UNL1        0.0000
     38 C         140.1428  145.9860  154.4998 C.ar    1  UNL1        0.0000
     39 C         139.2317  144.8030  154.3567 C.ar    1  UNL1        0.0000
     40 C         138.9312  143.9396  155.5460 C.ar    1  UNL1        0.0000
     41 C         139.5417  144.2593  156.8783 C.ar    1  UNL1        0.0014
     42 C         139.2411  143.3960  158.0676 C.ar    1  UNL1        0.0175
@<TRIPOS>BOND
     1    21    22    1
     2    22    23    1
     3    22    20    1
     4    20    19    1
     5    19    18    1
     6    18     9    1
     7     9    10   ar
     8    10    11   ar
     9    11     1    1
    10     1     2    2
    11     2    24    1
    12    24    25   ar
    13    25    26   ar
    14    26    33    1
    15    33    34   ar
    16    34    35   ar
    17    35    36   ar
    18    36    37   ar
    19    37    38   ar
    20    38    39   ar
    21    39    40   ar
    22    40    41   ar
    23    41    42   ar
    24    26    27   ar
    25    27    28   ar
    26    28    29   ar
    27    29    30   ar
    28    30    31   ar
    29    31    32   ar
    30     2     3    1
    31     3     4    2
    32     3     5   am
    33     5     6   am
    34     6     7    2
    35    11    12   ar
    36    12    13   ar
    37    13    14   ar
    38    14    15   ar
    39    15    16   ar
    40    16    17   ar
    41    17     9   ar
    42     6     1    1
    43    17    12   ar
    44    32    24   ar
    45    42    33   ar
    46    32    27   ar
    47    41    36   ar
    48     5     8    1
@<TRIPOS>MOLECULE
*****
 42 48 0 0 0
SMALL
GASTEIGER

@<TRIPOS>ATOM
      1 C         139.3119  143.1829  163.5404 C.2     1  UNL1        0.0775
      2 C         140.0685  143.5032  162.2855 C.2     1  UNL1        0.0611
      3 C         139.5226  144.7848  161.7293 C.2     1  UNL1        0.2520
      4 O         139.9888  145.4736  160.4811 O.2     1  UNL1       -0.2697
      5 N         138.4286  145.2567  162.6406 N.am    1  UNL1       -0.2482
      6 C         138.2984  144.2667  163.7600 C.2     1  UNL1        0.2534
      7 O         137.3256  144.3465  164.8989 O.2     1  UNL1       -0.2697
      8 H         137.8905  146.0730  162.5245 H       1  UNL1        0.1581
      9 N         140.0709  140.6029  166.3392 N.ar    1  UNL1       -0.2509
     10 N         139.9892  142.0182  165.8491 N.ar    1  UNL1       -0.1692
     11 C         139.5305  141.9886  164.4213 C.ar    1  UNL1        0.1068
     12 C         139.3286  140.5550  164.0290 C.ar    1  UNL1        0.0368
     13 C         138.8838  139.9187  162.7455 C.ar    1  UNL1        0.0030
     14 C         138.7731  138.4260  162.6474 C.ar    1  UNL1        0.0001
     15 C         139.1071  137.5696  163.8327 C.ar    1  UNL1        0.0015
     16 C         139.5519  138.2059  165.1161 C.ar    1  UNL1        0.0188
     17 C         139.6626  139.6986  165.2143 C.ar    1  UNL1        0.0793
     18 C         140.4877  140.1683  167.7130 C.3     1  UNL1        0.1289
     19 C         139.4958  140.1848  168.8381 C.3     1  UNL1        0.0437
     20 C         139.5793  141.2448  169.8961 C.3     1  UNL1        0.0742
     21 C         141.2911  143.1976  169.8168 C.3     1  UNL1        0.0897
     22 N         140.9107  141.8214  170.2766 N.3     1  UNL1       -0.2703
     23 C         141.8618  141.0219  171.1169 C.3     1  UNL1        0.0897
     24 C         141.1764  142.6853  161.6909 C.ar    1  UNL1        0.0235
     25 C         141.1623  142.0297  160.3418 C.ar    1  UNL1        0.0802
     26 N         142.4702  141.3186  160.1582 N.ar    1  UNL1       -0.3049
     27 C         143.2927  141.5347  161.3938 C.ar    1  UNL1        0.0640
     28 C         144.6665  141.0714  161.7789 C.ar    1  UNL1        0.0175
     29 C         145.2407  141.4528  163.1111 C.ar    1  UNL1        0.0015
     30 C         144.4411  142.2974  164.0584 C.ar    1  UNL1        0.0001
     31 C         143.0673  142.7607  163.6734 C.ar    1  UNL1        0.0015
     32 C         142.4932  142.3793  162.3412 C.ar    1  UNL1        0.0177
     33 C         142.8832  140.5300  158.9510 C.ar    1  UNL1        0.0640
     34 C         143.6238  141.2023  157.8332 C.ar    1  UNL1        0.0175
     35 C         144.0368  140.4138  156.6259 C.ar    1  UNL1        0.0015
     36 C         143.7092  138.9527  156.5364 C.ar    1  UNL1        0.0001
     37 C         144.1221  138.1641  155.3292 C.ar    1  UNL1        0.0000
     38 C         143.7945  136.7030  155.2396 C.ar    1  UNL1        0.0000
     39 C         143.0540  136.0306  156.3574 C.ar    1  UNL1        0.0000
     40 C         142.6410  136.8193  157.5647 C.ar    1  UNL1        0.0000
     41 C         142.9686  138.2803  157.6542 C.ar    1  UNL1        0.0014
     42 C         142.5556  139.0689  158.8615 C.ar    1  UNL1        0.0175
@<TRIPOS>BOND
     1    21    22    1
     2    22    23    1
     3    22    20    1
     4    20    19    1
     5    19    18    1
     6    18     9    1
     7     9    10   ar
     8    10    11   ar
     9    11     1    1
    10     1     2    2
    11     2    24    1
    12    24    25   ar
    13    25    26   ar
    14    26    33    1
    15    33    34   ar
    16    34    35   ar
    17    35    36   ar
    18    36    37   ar
    19    37    38   ar
    20    38    39   ar
    21    39    40   ar
    22    40    41   ar
    23    41    42   ar
    24    26    27   ar
    25    27    28   ar
    26    28    29   ar
    27    29    30   ar
    28    30    31   ar
    29    31    32   ar
    30     2     3    1
    31     3     4    2
    32     3     5   am
    33     5     6   am
    34     6     7    2
    35    11    12   ar
    36    12    13   ar
    37    13    14   ar
    38    14    15   ar
    39    15    16   ar
    40    16    17   ar
    41    17     9   ar
    42     6     1    1
    43    17    12   ar
    44    32    24   ar
    45    42    33   ar
    46    32    27   ar
    47    41    36   ar
    48     5     8    1
@<TRIPOS>MOLECULE
*****
 42 48 0 0 0
SMALL
GASTEIGER

@<TRIPOS>ATOM
      1 C         139.9371  139.8093  162.3209 C.2     1  UNL1        0.0775
      2 C         140.2610  139.7892  160.8565 C.2     1  UNL1        0.0611
      3 C         139.5779  138.6011  160.2468 C.2     1  UNL1        0.2520
      4 O         139.6315  138.1980  158.8030 O.2     1  UNL1       -0.2697
      5 N         138.8318  137.8868  161.3345 N.am    1  UNL1       -0.2482
      6 C         139.0538  138.6335  162.6164 C.2     1  UNL1        0.2534
      7 O         138.4912  138.2686  163.9581 O.2     1  UNL1       -0.2697
      8 H         138.2913  137.0712  161.2261 H       1  UNL1        0.1581
      9 N         141.8023  142.0340  164.8972 N.ar    1  UNL1       -0.2509
     10 N         141.7558  140.8454  163.9833 N.ar    1  UNL1       -0.1692
     11 C         140.4129  140.8265  163.3153 C.ar    1  UNL1        0.1068
     12 C         139.6295  142.0034  163.8163 C.ar    1  UNL1        0.0368
     13 C         138.2451  142.4920  163.5086 C.ar    1  UNL1        0.0030
     14 C         137.7193  143.7269  164.1785 C.ar    1  UNL1        0.0001
     15 C         138.5779  144.4731  165.1561 C.ar    1  UNL1        0.0015
     16 C         139.9624  143.9845  165.4638 C.ar    1  UNL1        0.0188
     17 C         140.4881  142.7497  164.7939 C.ar    1  UNL1        0.0793
     18 C         142.9597  142.4363  165.7624 C.3     1  UNL1        0.1289
     19 C         144.1361  143.1452  165.1593 C.3     1  UNL1        0.0437
     20 C         145.0417  142.4204  164.2083 C.3     1  UNL1        0.0742
     21 C         144.2565  143.5562  162.0076 C.3     1  UNL1        0.0897
     22 N         144.6832  142.3276  162.7547 N.3     1  UNL1       -0.2703
     23 C         144.7515  141.0061  162.0483 C.3     1  UNL1        0.0897
     24 C         141.1177  140.7829  160.1293 C.ar    1  UNL1        0.0235
     25 C         142.3662  140.4729  159.3578 C.ar    1  UNL1        0.0802
     26 N         142.8964  141.7594  158.7976 N.ar    1  UNL1       -0.3049
     27 C         141.9756  142.8645  159.2229 C.ar    1  UNL1        0.0640
     28 C         141.9960  144.3424  158.9671 C.ar    1  UNL1        0.0175
     29 C         140.9172  145.2168  159.5343 C.ar    1  UNL1        0.0015
     30 C         139.8180  144.6132  160.3573 C.ar    1  UNL1        0.0001
     31 C         139.7975  143.1354  160.6131 C.ar    1  UNL1        0.0015
     32 C         140.8763  142.2610  160.0459 C.ar    1  UNL1        0.0177
     33 C         144.1306  141.9138  157.9593 C.ar    1  UNL1        0.0640
     34 C         145.3396  142.5993  158.5236 C.ar    1  UNL1        0.0175
     35 C         146.5739  142.7537  157.6854 C.ar    1  UNL1        0.0015
     36 C         146.5993  142.2226  156.2828 C.ar    1  UNL1        0.0001
     37 C         147.8336  142.3770  155.4446 C.ar    1  UNL1        0.0000
     38 C         147.8589  141.8458  154.0420 C.ar    1  UNL1        0.0000
     39 C         146.6500  141.1603  153.4776 C.ar    1  UNL1        0.0000
     40 C         145.4157  141.0059  154.3160 C.ar    1  UNL1        0.0000
     41 C         145.3903  141.5370  155.7185 C.ar    1  UNL1        0.0014
     42 C         144.1560  141.3826  156.5567 C.ar    1  UNL1        0.0175
@<TRIPOS>BOND
     1    21    22    1
     2    22    23    1
     3    22    20    1
     4    20    19    1
     5    19    18    1
     6    18     9    1
     7     9    10   ar
     8    10    11   ar
     9    11     1    1
    10     1     2    2
    11     2    24    1
    12    24    25   ar
    13    25    26   ar
    14    26    33    1
    15    33    34   ar
    16    34    35   ar
    17    35    36   ar
    18    36    37   ar
    19    37    38   ar
    20    38    39   ar
    21    39    40   ar
    22    40    41   ar
    23    41    42   ar
    24    26    27   ar
    25    27    28   ar
    26    28    29   ar
    27    29    30   ar
    28    30    31   ar
    29    31    32   ar
    30     2     3    1
    31     3     4    2
    32     3     5   am
    33     5     6   am
    34     6     7    2
    35    11    12   ar
    36    12    13   ar
    37    13    14   ar
    38    14    15   ar
    39    15    16   ar
    40    16    17   ar
    41    17     9   ar
    42     6     1    1
    43    17    12   ar
    44    32    24   ar
    45    42    33   ar
    46    32    27   ar
    47    41    36   ar
    48     5     8    1
