@<TRIPOS>MOLECULE
*****
 35 38 0 0 0
SMALL
GASTEIGER

@<TRIPOS>ATOM
      1 N         143.4418  139.3160  163.1182 N.3     1  UNL1       -0.2679
      2 C         142.2954  138.9255  162.2331 C.3     1  UNL1        0.0897
      3 C         141.0534  138.3344  162.8315 C.3     1  UNL1        0.0897
      4 N         140.9578  138.1339  164.3150 N.3     1  UNL1       -0.2680
      5 C         142.1042  138.5245  165.2001 C.3     1  UNL1        0.0897
      6 C         143.3462  139.1155  164.6016 C.3     1  UNL1        0.0897
      7 C         144.6838  139.9070  162.5198 C.3     1  UNL1        0.1080
      8 C         144.9755  141.3687  162.6887 C.3     1  UNL1        0.1661
      9 O         146.3225  141.8131  163.1768 O.3     1  UNL1       -0.3771
     10 H         146.8816  141.0363  163.3348 H       1  UNL1        0.2109
     11 C         142.6634  143.8556  160.6347 C.ar    1  UNL1        0.1510
     12 C         143.7186  142.8384  160.9538 C.ar    1  UNL1        0.0548
     13 C         143.9203  142.3859  162.3697 C.ar    1  UNL1        0.0901
     14 N         143.0668  142.9505  163.4663 N.ar    1  UNL1       -0.2448
     15 C         142.0116  143.9677  163.1471 C.ar    1  UNL1        0.1118
     16 C         141.8099  144.4202  161.7313 C.ar    1  UNL1        0.1213
     17 C         143.0044  143.4894  158.0852 C.3     1  UNL1        0.2525
     18 O         142.4617  144.3081  159.2188 O.3     1  UNL1       -0.4707
     19 C         140.7546  145.4375  161.4122 C.1     1  UNL1        0.1051
     20 N         139.6994  146.4546  161.0930 N.1     1  UNL1       -0.1907
     21 C         139.7159  137.5429  164.9134 C.3     1  UNL1        0.1064
     22 C         138.6729  138.4386  165.5133 C.3     1  UNL1        0.1483
     23 O         137.7996  137.9341  166.6237 O.3     1  UNL1       -0.3786
     24 H         137.1845  138.6335  166.8945 H       1  UNL1        0.2108
     25 C         138.5031  139.8389  165.0028 C.ar    1  UNL1        0.0015
     26 C         137.7216  140.0899  163.7474 C.ar    1  UNL1       -0.0020
     27 C         137.5518  141.4900  163.2369 C.ar    1  UNL1        0.0060
     28 C         138.1636  142.6393  163.9819 C.ar    1  UNL1        0.0748
     29 C         138.9451  142.3883  165.2374 C.ar    1  UNL1        0.0233
     30 C         139.1149  140.9881  165.7479 C.ar    1  UNL1       -0.0238
     31 C         139.8964  140.7370  167.0034 C.3     1  UNL1        0.0306
     32 C         139.4294  143.7106  165.7542 C.3     1  UNL1        0.2352
     33 O         138.9471  144.7788  164.8180 O.3     1  UNL1       -0.4404
     34 C         138.1648  144.1167  163.7227 C.2     1  UNL1        0.3413
     35 O         137.5004  144.8103  162.5706 O.2     1  UNL1       -0.2449
@<TRIPOS>BOND
     1    17    18    1
     2    18    11    1
     3    11    12   ar
     4    12    13   ar
     5    13     8    1
     6     8     9    1
     7     8     7    1
     8     7     1    1
     9     1     2    1
    10     2     3    1
    11     3     4    1
    12     4    21    1
    13    21    22    1
    14    22    23    1
    15    22    25    1
    16    25    26   ar
    17    26    27   ar
    18    27    28   ar
    19    28    29   ar
    20    29    30   ar
    21    30    31    1
    22    29    32    1
    23    32    33    1
    24    33    34    1
    25    34    35    2
    26     4     5    1
    27     5     6    1
    28    13    14   ar
    29    14    15   ar
    30    15    16   ar
    31    16    19    1
    32    19    20    3
    33    16    11   ar
    34     6     1    1
    35    30    25   ar
    36    34    28    1
    37     9    10    1
    38    23    24    1
@<TRIPOS>MOLECULE
*****
 35 38 0 0 0
SMALL
GASTEIGER

@<TRIPOS>ATOM
      1 N         140.7669  140.4954  166.6919 N.3     1  UNL1       -0.2679
      2 C         141.0241  141.9634  166.5225 C.3     1  UNL1        0.0897
      3 C         142.2843  142.4323  165.8576 C.3     1  UNL1        0.0897
      4 N         143.2873  141.4329  165.3621 N.3     1  UNL1       -0.2680
      5 C         143.0301  139.9649  165.5315 C.3     1  UNL1        0.0897
      6 C         141.7698  139.4962  166.1964 C.3     1  UNL1        0.0897
      7 C         139.5067  140.0266  167.3568 C.3     1  UNL1        0.1080
      8 C         138.5416  139.1570  166.6067 C.3     1  UNL1        0.1661
      9 O         137.7281  138.1328  167.3410 O.3     1  UNL1       -0.3771
     10 H         137.9458  138.1637  168.2857 H       1  UNL1        0.2109
     11 C         137.7826  140.7749  163.0633 C.ar    1  UNL1        0.1510
     12 C         137.9342  140.6201  164.5475 C.ar    1  UNL1        0.0548
     13 C         138.3900  139.3118  165.1225 C.ar    1  UNL1        0.0901
     14 N         138.6943  138.1583  164.2131 N.ar    1  UNL1       -0.2448
     15 C         138.5427  138.3131  162.7289 C.ar    1  UNL1        0.1118
     16 C         138.0869  139.6214  162.1539 C.ar    1  UNL1        0.1213
     17 C         137.6439  143.3657  163.1985 C.3     1  UNL1        0.2525
     18 O         137.3268  142.0832  162.4882 O.3     1  UNL1       -0.4707
     19 C         137.9353  139.7761  160.6696 C.1     1  UNL1        0.1051
     20 N         137.7839  139.9308  159.1853 N.1     1  UNL1       -0.1907
     21 C         144.5475  141.9018  164.6973 C.3     1  UNL1        0.1064
     22 C         144.5838  142.0947  163.2102 C.3     1  UNL1        0.1483
     23 O         145.8759  141.9370  162.4648 O.3     1  UNL1       -0.3786
     24 H         145.7252  142.0943  161.5196 H       1  UNL1        0.2108
     25 C         143.3279  142.4453  162.4684 C.ar    1  UNL1        0.0015
     26 C         142.5654  141.3794  161.7389 C.ar    1  UNL1       -0.0020
     27 C         141.3096  141.7299  160.9972 C.ar    1  UNL1        0.0060
     28 C         140.8165  143.1465  160.9851 C.ar    1  UNL1        0.0748
     29 C         141.5790  144.2125  161.7146 C.ar    1  UNL1        0.0233
     30 C         142.8348  143.8619  162.4563 C.ar    1  UNL1       -0.0238
     31 C         143.5974  144.9278  163.1859 C.3     1  UNL1        0.0306
     32 C         140.8544  145.5122  161.5261 C.3     1  UNL1        0.2352
     33 O         139.6439  145.2495  160.6801 O.3     1  UNL1       -0.4404
     34 C         139.6205  143.7874  160.3457 C.2     1  UNL1        0.3413
     35 O         138.5832  143.0890  159.5173 O.2     1  UNL1       -0.2449
@<TRIPOS>BOND
     1    17    18    1
     2    18    11    1
     3    11    12   ar
     4    12    13   ar
     5    13     8    1
     6     8     9    1
     7     8     7    1
     8     7     1    1
     9     1     2    1
    10     2     3    1
    11     3     4    1
    12     4    21    1
    13    21    22    1
    14    22    23    1
    15    22    25    1
    16    25    26   ar
    17    26    27   ar
    18    27    28   ar
    19    28    29   ar
    20    29    30   ar
    21    30    31    1
    22    29    32    1
    23    32    33    1
    24    33    34    1
    25    34    35    2
    26     4     5    1
    27     5     6    1
    28    13    14   ar
    29    14    15   ar
    30    15    16   ar
    31    16    19    1
    32    19    20    3
    33    16    11   ar
    34     6     1    1
    35    30    25   ar
    36    34    28    1
    37     9    10    1
    38    23    24    1
@<TRIPOS>MOLECULE
*****
 35 38 0 0 0
SMALL
GASTEIGER

@<TRIPOS>ATOM
      1 N         141.5808  140.7984  159.6197 N.3     1  UNL1       -0.2679
      2 C         140.3705  141.6509  159.8617 C.3     1  UNL1        0.0897
      3 C         139.2936  141.1775  160.7923 C.3     1  UNL1        0.0897
      4 N         139.4269  139.8515  161.4809 N.3     1  UNL1       -0.2680
      5 C         140.6371  138.9990  161.2389 C.3     1  UNL1        0.0897
      6 C         141.7140  139.4724  160.3082 C.3     1  UNL1        0.0897
      7 C         142.6577  141.2717  158.6890 C.3     1  UNL1        0.1080
      8 C         143.5160  142.4419  159.0685 C.3     1  UNL1        0.1661
      9 O         144.0985  143.3217  158.0024 O.3     1  UNL1       -0.3771
     10 H         143.8248  142.9973  157.1302 H       1  UNL1        0.2109
     11 C         144.9028  142.0749  162.7688 C.ar    1  UNL1        0.1510
     12 C         144.6269  141.7847  161.3232 C.ar    1  UNL1        0.0548
     13 C         143.7918  142.7322  160.5141 C.ar    1  UNL1        0.0901
     14 N         143.2325  143.9700  161.1505 N.ar    1  UNL1       -0.2448
     15 C         143.5084  144.2603  162.5960 C.ar    1  UNL1        0.1118
     16 C         144.3435  143.3127  163.4052 C.ar    1  UNL1        0.1213
     17 C         145.1343  139.8604  164.1075 C.3     1  UNL1        0.2525
     18 O         145.7379  141.1274  163.5780 O.3     1  UNL1       -0.4707
     19 C         144.6193  143.6031  164.8508 C.1     1  UNL1        0.1051
     20 N         144.8952  143.8934  166.2963 N.1     1  UNL1       -0.1907
     21 C         138.3500  139.3781  162.4115 C.3     1  UNL1        0.1064
     22 C         137.8092  140.3004  163.4637 C.3     1  UNL1        0.1483
     23 O         136.7046  141.2575  163.1262 O.3     1  UNL1       -0.3786
     24 H         136.4746  141.7761  163.9130 H       1  UNL1        0.2108
     25 C         138.3731  140.2656  164.8533 C.ar    1  UNL1        0.0015
     26 C         137.9804  139.1659  165.7946 C.ar    1  UNL1       -0.0020
     27 C         138.5443  139.1310  167.1842 C.ar    1  UNL1        0.0060
     28 C         139.5008  140.1960  167.6323 C.ar    1  UNL1        0.0748
     29 C         139.8935  141.2958  166.6910 C.ar    1  UNL1        0.0233
     30 C         139.3296  141.3307  165.3014 C.ar    1  UNL1       -0.0238
     31 C         139.7223  142.4305  164.3599 C.3     1  UNL1        0.0306
     32 C         140.8496  142.2014  167.4091 C.3     1  UNL1        0.2352
     33 O         141.0479  141.6612  168.7943 O.3     1  UNL1       -0.4404
     34 C         140.2143  140.4218  168.9323 C.2     1  UNL1        0.3413
     35 O         140.1121  139.5597  170.1555 O.2     1  UNL1       -0.2449
@<TRIPOS>BOND
     1    17    18    1
     2    18    11    1
     3    11    12   ar
     4    12    13   ar
     5    13     8    1
     6     8     9    1
     7     8     7    1
     8     7     1    1
     9     1     2    1
    10     2     3    1
    11     3     4    1
    12     4    21    1
    13    21    22    1
    14    22    23    1
    15    22    25    1
    16    25    26   ar
    17    26    27   ar
    18    27    28   ar
    19    28    29   ar
    20    29    30   ar
    21    30    31    1
    22    29    32    1
    23    32    33    1
    24    33    34    1
    25    34    35    2
    26     4     5    1
    27     5     6    1
    28    13    14   ar
    29    14    15   ar
    30    15    16   ar
    31    16    19    1
    32    19    20    3
    33    16    11   ar
    34     6     1    1
    35    30    25   ar
    36    34    28    1
    37     9    10    1
    38    23    24    1
@<TRIPOS>MOLECULE
*****
 35 38 0 0 0
SMALL
GASTEIGER

@<TRIPOS>ATOM
      1 N         142.3387  138.0382  162.0167 N.3     1  UNL1       -0.2679
      2 C         140.9504  137.9669  161.4531 C.3     1  UNL1        0.0897
      3 C         139.7715  137.8623  162.3746 C.3     1  UNL1        0.0897
      4 N         139.9809  137.8291  163.8596 N.3     1  UNL1       -0.2680
      5 C         141.3692  137.9004  164.4231 C.3     1  UNL1        0.0897
      6 C         142.5481  138.0050  163.5016 C.3     1  UNL1        0.0897
      7 C         143.5177  138.1427  161.0952 C.3     1  UNL1        0.1080
      8 C         143.8299  139.4460  160.4214 C.3     1  UNL1        0.1661
      9 O         144.1187  139.4792  158.9498 O.3     1  UNL1       -0.3771
     10 H         144.0628  138.5805  158.5891 H       1  UNL1        0.2109
     11 C         143.1364  143.1945  161.5247 C.ar    1  UNL1        0.1510
     12 C         143.1132  141.9244  160.7270 C.ar    1  UNL1        0.0548
     13 C         143.8532  140.7161  161.2191 C.ar    1  UNL1        0.0901
     14 N         144.6165  140.7778  162.5089 N.ar    1  UNL1       -0.2448
     15 C         144.6398  142.0479  163.3065 C.ar    1  UNL1        0.1118
     16 C         143.8998  143.2563  162.8144 C.ar    1  UNL1        0.1213
     17 C         141.4315  144.2782  159.8910 C.3     1  UNL1        0.2525
     18 O         142.3964  144.4030  161.0327 O.3     1  UNL1       -0.4707
     19 C         143.9231  144.5264  163.6122 C.1     1  UNL1        0.1051
     20 N         143.9466  145.7964  164.4100 N.1     1  UNL1       -0.1907
     21 C         138.8019  137.7246  164.7810 C.3     1  UNL1        0.1064
     22 C         138.2626  138.9533  165.4513 C.3     1  UNL1        0.1483
     23 O         137.5167  138.8346  166.7473 O.3     1  UNL1       -0.3786
     24 H         137.2389  139.7159  167.0423 H       1  UNL1        0.2108
     25 C         138.4692  140.3009  164.8255 C.ar    1  UNL1        0.0015
     26 C         137.6338  140.7189  163.6520 C.ar    1  UNL1       -0.0020
     27 C         137.8403  142.0664  163.0262 C.ar    1  UNL1        0.0060
     28 C         138.8823  142.9959  163.5741 C.ar    1  UNL1        0.0748
     29 C         139.7178  142.5780  164.7477 C.ar    1  UNL1        0.0233
     30 C         139.5112  141.2305  165.3735 C.ar    1  UNL1       -0.0238
     31 C         140.3466  140.8124  166.5471 C.3     1  UNL1        0.0306
     32 C         140.6615  143.6991  165.0677 C.3     1  UNL1        0.2352
     33 O         140.4093  144.8100  164.0918 O.3     1  UNL1       -0.4404
     34 C         139.3098  144.3754  163.1687 C.2     1  UNL1        0.3413
     35 O         138.7380  145.1792  162.0387 O.2     1  UNL1       -0.2449
@<TRIPOS>BOND
     1    17    18    1
     2    18    11    1
     3    11    12   ar
     4    12    13   ar
     5    13     8    1
     6     8     9    1
     7     8     7    1
     8     7     1    1
     9     1     2    1
    10     2     3    1
    11     3     4    1
    12     4    21    1
    13    21    22    1
    14    22    23    1
    15    22    25    1
    16    25    26   ar
    17    26    27   ar
    18    27    28   ar
    19    28    29   ar
    20    29    30   ar
    21    30    31    1
    22    29    32    1
    23    32    33    1
    24    33    34    1
    25    34    35    2
    26     4     5    1
    27     5     6    1
    28    13    14   ar
    29    14    15   ar
    30    15    16   ar
    31    16    19    1
    32    19    20    3
    33    16    11   ar
    34     6     1    1
    35    30    25   ar
    36    34    28    1
    37     9    10    1
    38    23    24    1
@<TRIPOS>MOLECULE
*****
 35 38 0 0 0
SMALL
GASTEIGER

@<TRIPOS>ATOM
      1 N         139.8260  138.7869  161.3860 N.3     1  UNL1       -0.2679
      2 C         141.2570  139.2204  161.5054 C.3     1  UNL1        0.0897
      3 C         142.0334  138.9098  162.7507 C.3     1  UNL1        0.0897
      4 N         141.3786  138.1657  163.8766 N.3     1  UNL1       -0.2680
      5 C         139.9476  137.7321  163.7572 C.3     1  UNL1        0.0897
      6 C         139.1713  138.0428  162.5119 C.3     1  UNL1        0.0897
      7 C         139.0497  139.0975  160.1407 C.3     1  UNL1        0.1080
      8 C         138.3648  140.4241  159.9950 C.3     1  UNL1        0.1661
      9 O         137.6889  140.7815  158.7045 O.3     1  UNL1       -0.3771
     10 H         137.7875  140.0503  158.0746 H       1  UNL1        0.2109
     11 C         139.3244  143.5002  162.3116 C.ar    1  UNL1        0.1510
     12 C         139.3332  142.5310  161.1668 C.ar    1  UNL1        0.0548
     13 C         138.3560  141.3933  161.1398 C.ar    1  UNL1        0.0901
     14 N         137.3699  141.2249  162.2575 N.ar    1  UNL1       -0.2448
     15 C         137.3611  142.1941  163.4022 C.ar    1  UNL1        0.1118
     16 C         138.3383  143.3318  163.4293 C.ar    1  UNL1        0.1213
     17 C         139.9133  145.9736  161.7775 C.3     1  UNL1        0.2525
     18 O         140.3017  144.6379  162.3387 O.3     1  UNL1       -0.4707
     19 C         138.3294  144.3010  164.5741 C.1     1  UNL1        0.1051
     20 N         138.3207  145.2702  165.7189 N.1     1  UNL1       -0.1907
     21 C         142.1549  137.8550  165.1219 C.3     1  UNL1        0.1064
     22 C         142.9887  138.9197  165.7711 C.3     1  UNL1        0.1483
     23 O         144.3530  139.2356  165.2337 O.3     1  UNL1       -0.3786
     24 H         144.7538  139.9420  165.7640 H       1  UNL1        0.2108
     25 C         142.4580  139.6685  166.9576 C.ar    1  UNL1        0.0015
     26 C         142.6693  139.1287  168.3410 C.ar    1  UNL1       -0.0020
     27 C         142.1387  139.8774  169.5275 C.ar    1  UNL1        0.0060
     28 C         141.3968  141.1661  169.3305 C.ar    1  UNL1        0.0748
     29 C         141.1854  141.7060  167.9471 C.ar    1  UNL1        0.0233
     30 C         141.7160  140.9573  166.7606 C.ar    1  UNL1       -0.0238
     31 C         141.5047  141.4971  165.3771 C.3     1  UNL1        0.0306
     32 C         140.4214  142.9916  168.0629 C.3     1  UNL1        0.2352
     33 O         140.1605  143.2462  169.5180 O.3     1  UNL1       -0.4404
     34 C         140.7633  142.1180  170.3014 C.2     1  UNL1        0.3413
     35 O         140.7373  141.9681  171.7936 O.2     1  UNL1       -0.2449
@<TRIPOS>BOND
     1    17    18    1
     2    18    11    1
     3    11    12   ar
     4    12    13   ar
     5    13     8    1
     6     8     9    1
     7     8     7    1
     8     7     1    1
     9     1     2    1
    10     2     3    1
    11     3     4    1
    12     4    21    1
    13    21    22    1
    14    22    23    1
    15    22    25    1
    16    25    26   ar
    17    26    27   ar
    18    27    28   ar
    19    28    29   ar
    20    29    30   ar
    21    30    31    1
    22    29    32    1
    23    32    33    1
    24    33    34    1
    25    34    35    2
    26     4     5    1
    27     5     6    1
    28    13    14   ar
    29    14    15   ar
    30    15    16   ar
    31    16    19    1
    32    19    20    3
    33    16    11   ar
    34     6     1    1
    35    30    25   ar
    36    34    28    1
    37     9    10    1
    38    23    24    1
@<TRIPOS>MOLECULE
*****
 35 38 0 0 0
SMALL
GASTEIGER

@<TRIPOS>ATOM
      1 N         138.4917  141.1182  163.3915 N.3     1  UNL1       -0.2679
      2 C         138.0521  142.5519  163.4286 C.3     1  UNL1        0.0897
      3 C         138.5205  143.5076  162.3716 C.3     1  UNL1        0.0897
      4 N         139.4285  143.0295  161.2775 N.3     1  UNL1       -0.2680
      5 C         139.8681  141.5958  161.2404 C.3     1  UNL1        0.0897
      6 C         139.3997  140.6402  162.2974 C.3     1  UNL1        0.0897
      7 C         138.0233  140.1626  164.4485 C.3     1  UNL1        0.1080
      8 C         139.0200  139.3452  165.2157 C.3     1  UNL1        0.1661
      9 O         139.0055  137.8493  165.1071 O.3     1  UNL1       -0.3771
     10 H         138.2956  137.5756  164.5054 H       1  UNL1        0.2109
     11 C         140.7574  140.9014  168.4265 C.ar    1  UNL1        0.1510
     12 C         139.7463  140.2227  167.5507 C.ar    1  UNL1        0.0548
     13 C         140.0311  140.0239  166.0915 C.ar    1  UNL1        0.0901
     14 N         141.3270  140.5038  165.5081 N.ar    1  UNL1       -0.2448
     15 C         142.3381  141.1825  166.3839 C.ar    1  UNL1        0.1118
     16 C         142.0533  141.3813  167.8431 C.ar    1  UNL1        0.1213
     17 C         139.8150  142.3637  170.3562 C.3     1  UNL1        0.2525
     18 O         140.4727  141.1003  169.8858 O.3     1  UNL1       -0.4707
     19 C         143.0645  142.0601  168.7189 C.1     1  UNL1        0.1051
     20 N         144.0755  142.7388  169.5947 N.1     1  UNL1       -0.1907
     21 C         139.8969  143.9852  160.2205 C.3     1  UNL1        0.1064
     22 C         141.1950  144.7167  160.3929 C.3     1  UNL1        0.1483
     23 O         141.6181  145.7419  159.3830 O.3     1  UNL1       -0.3786
     24 H         142.4742  146.1171  159.6421 H       1  UNL1        0.2108
     25 C         142.0702  144.4231  161.5754 C.ar    1  UNL1        0.0015
     26 C         141.8610  145.1604  162.8647 C.ar    1  UNL1       -0.0020
     27 C         142.7361  144.8668  164.0471 C.ar    1  UNL1        0.0060
     28 C         143.8204  143.8358  163.9400 C.ar    1  UNL1        0.0748
     29 C         144.0296  143.0985  162.6506 C.ar    1  UNL1        0.0233
     30 C         143.1545  143.3921  161.4682 C.ar    1  UNL1       -0.0238
     31 C         143.3636  142.6548  160.1788 C.3     1  UNL1        0.0306
     32 C         145.1701  142.1433  162.8426 C.3     1  UNL1        0.2352
     33 O         145.6658  142.2903  164.2506 O.3     1  UNL1       -0.4404
     34 C         144.8316  143.3364  164.9289 C.2     1  UNL1        0.3413
     35 O         144.9823  143.8012  166.3471 O.2     1  UNL1       -0.2449
@<TRIPOS>BOND
     1    17    18    1
     2    18    11    1
     3    11    12   ar
     4    12    13   ar
     5    13     8    1
     6     8     9    1
     7     8     7    1
     8     7     1    1
     9     1     2    1
    10     2     3    1
    11     3     4    1
    12     4    21    1
    13    21    22    1
    14    22    23    1
    15    22    25    1
    16    25    26   ar
    17    26    27   ar
    18    27    28   ar
    19    28    29   ar
    20    29    30   ar
    21    30    31    1
    22    29    32    1
    23    32    33    1
    24    33    34    1
    25    34    35    2
    26     4     5    1
    27     5     6    1
    28    13    14   ar
    29    14    15   ar
    30    15    16   ar
    31    16    19    1
    32    19    20    3
    33    16    11   ar
    34     6     1    1
    35    30    25   ar
    36    34    28    1
    37     9    10    1
    38    23    24    1
@<TRIPOS>MOLECULE
*****
 35 38 0 0 0
SMALL
GASTEIGER

@<TRIPOS>ATOM
      1 N         144.3037  140.7749  164.2490 N.3     1  UNL1       -0.2679
      2 C         143.9915  141.9170  165.1699 C.3     1  UNL1        0.0897
      3 C         143.1197  141.6958  166.3703 C.3     1  UNL1        0.0897
      4 N         142.5599  140.3324  166.6496 N.3     1  UNL1       -0.2680
      5 C         142.8721  139.1903  165.7287 C.3     1  UNL1        0.0897
      6 C         143.7440  139.4116  164.5284 C.3     1  UNL1        0.0897
      7 C         145.1756  140.9961  163.0486 C.3     1  UNL1        0.1080
      8 C         144.6345  141.7208  161.8518 C.3     1  UNL1        0.1661
      9 O         145.4596  142.7773  161.1787 O.3     1  UNL1       -0.3771
     10 H         146.3086  142.8667  161.6391 H       1  UNL1        0.2109
     11 C         140.9173  142.1547  160.5314 C.ar    1  UNL1        0.1510
     12 C         142.2833  142.4864  161.0550 C.ar    1  UNL1        0.0548
     13 C         143.2686  141.3890  161.3283 C.ar    1  UNL1        0.0901
     14 N         142.8880  139.9598  161.0782 N.ar    1  UNL1       -0.2448
     15 C         141.5220  139.6281  160.5547 C.ar    1  UNL1        0.1118
     16 C         140.5367  140.7256  160.2813 C.ar    1  UNL1        0.1213
     17 C         140.3918  144.6792  160.2140 C.3     1  UNL1        0.2525
     18 O         139.9319  143.2521  160.2580 O.3     1  UNL1       -0.4707
     19 C         139.1707  140.3937  159.7578 C.1     1  UNL1        0.1051
     20 N         137.8047  140.0619  159.2344 N.1     1  UNL1       -0.1907
     21 C         141.6881  140.1112  167.8500 C.3     1  UNL1        0.1064
     22 C         140.2061  140.3203  167.7493 C.3     1  UNL1        0.1483
     23 O         139.2957  139.7528  168.7977 O.3     1  UNL1       -0.3786
     24 H         138.3766  139.9775  168.5838 H       1  UNL1        0.2108
     25 C         139.6346  141.0970  166.6003 C.ar    1  UNL1        0.0015
     26 C         139.7983  142.5870  166.5469 C.ar    1  UNL1       -0.0020
     27 C         139.2268  143.3637  165.3979 C.ar    1  UNL1        0.0060
     28 C         138.4916  142.6502  164.3022 C.ar    1  UNL1        0.0748
     29 C         138.3280  141.1601  164.3556 C.ar    1  UNL1        0.0233
     30 C         138.8994  140.3835  165.5046 C.ar    1  UNL1       -0.0238
     31 C         138.7358  138.8933  165.5580 C.3     1  UNL1        0.0306
     32 C         137.5599  140.7343  163.1395 C.3     1  UNL1        0.2352
     33 O         137.2489  141.9612  162.3346 O.3     1  UNL1       -0.4404
     34 C         137.8248  143.1453  163.0532 C.2     1  UNL1        0.3413
     35 O         137.7473  144.5738  162.6020 O.2     1  UNL1       -0.2449
@<TRIPOS>BOND
     1    17    18    1
     2    18    11    1
     3    11    12   ar
     4    12    13   ar
     5    13     8    1
     6     8     9    1
     7     8     7    1
     8     7     1    1
     9     1     2    1
    10     2     3    1
    11     3     4    1
    12     4    21    1
    13    21    22    1
    14    22    23    1
    15    22    25    1
    16    25    26   ar
    17    26    27   ar
    18    27    28   ar
    19    28    29   ar
    20    29    30   ar
    21    30    31    1
    22    29    32    1
    23    32    33    1
    24    33    34    1
    25    34    35    2
    26     4     5    1
    27     5     6    1
    28    13    14   ar
    29    14    15   ar
    30    15    16   ar
    31    16    19    1
    32    19    20    3
    33    16    11   ar
    34     6     1    1
    35    30    25   ar
    36    34    28    1
    37     9    10    1
    38    23    24    1
@<TRIPOS>MOLECULE
*****
 35 38 0 0 0
SMALL
GASTEIGER

@<TRIPOS>ATOM
      1 N         140.4064  140.0328  160.6408 N.3     1  UNL1       -0.2679
      2 C         140.9156  138.8394  161.3935 C.3     1  UNL1        0.0897
      3 C         142.2746  138.8762  162.0272 C.3     1  UNL1        0.0897
      4 N         143.1245  140.1066  161.9083 N.3     1  UNL1       -0.2680
      5 C         142.6153  141.3000  161.1556 C.3     1  UNL1        0.0897
      6 C         141.2563  141.2631  160.5218 C.3     1  UNL1        0.0897
      7 C         139.0474  139.9960  160.0070 C.3     1  UNL1        0.1080
      8 C         137.8281  140.2917  160.8291 C.3     1  UNL1        0.1661
      9 O         136.5508  139.5492  160.5701 O.3     1  UNL1       -0.3771
     10 H         136.6842  138.9196  159.8444 H       1  UNL1        0.2109
     11 C         138.0908  143.8173  162.6322 C.ar    1  UNL1        0.1510
     12 C         138.0327  142.7790  161.5512 C.ar    1  UNL1        0.0548
     13 C         137.8862  141.3299  161.9102 C.ar    1  UNL1        0.0901
     14 N         137.7977  140.9192  163.3501 N.ar    1  UNL1       -0.2448
     15 C         137.8557  141.9575  164.4311 C.ar    1  UNL1        0.1118
     16 C         138.0023  143.4065  164.0721 C.ar    1  UNL1        0.1213
     17 C         139.6035  145.8696  162.1324 C.3     1  UNL1        0.2525
     18 O         138.2374  145.2663  162.2733 O.3     1  UNL1       -0.4707
     19 C         138.0604  144.4448  165.1533 C.1     1  UNL1        0.1051
     20 N         138.1185  145.4829  166.2344 N.1     1  UNL1       -0.1907
     21 C         144.4835  140.1434  162.5420 C.3     1  UNL1        0.1064
     22 C         144.6312  139.8987  164.0145 C.3     1  UNL1        0.1483
     23 O         145.7447  139.0316  164.5227 O.3     1  UNL1       -0.3786
     24 H         145.6967  138.9776  165.4900 H       1  UNL1        0.2108
     25 C         143.6654  140.5211  164.9789 C.ar    1  UNL1        0.0015
     26 C         143.6773  142.0046  165.2000 C.ar    1  UNL1       -0.0020
     27 C         142.7115  142.6270  166.1643 C.ar    1  UNL1        0.0060
     28 C         141.7338  141.7658  166.9075 C.ar    1  UNL1        0.0748
     29 C         141.7219  140.2822  166.6865 C.ar    1  UNL1        0.0233
     30 C         142.6876  139.6598  165.7222 C.ar    1  UNL1       -0.0238
     31 C         142.6758  138.1762  165.5010 C.3     1  UNL1        0.0306
     32 C         140.6511  139.6926  167.5557 C.3     1  UNL1        0.2352
     33 O         140.0012  140.8118  168.3141 O.3     1  UNL1       -0.4404
     34 C         140.6704  142.0931  167.9135 C.2     1  UNL1        0.3413
     35 O         140.3349  143.4614  168.4284 O.2     1  UNL1       -0.2449
@<TRIPOS>BOND
     1    17    18    1
     2    18    11    1
     3    11    12   ar
     4    12    13   ar
     5    13     8    1
     6     8     9    1
     7     8     7    1
     8     7     1    1
     9     1     2    1
    10     2     3    1
    11     3     4    1
    12     4    21    1
    13    21    22    1
    14    22    23    1
    15    22    25    1
    16    25    26   ar
    17    26    27   ar
    18    27    28   ar
    19    28    29   ar
    20    29    30   ar
    21    30    31    1
    22    29    32    1
    23    32    33    1
    24    33    34    1
    25    34    35    2
    26     4     5    1
    27     5     6    1
    28    13    14   ar
    29    14    15   ar
    30    15    16   ar
    31    16    19    1
    32    19    20    3
    33    16    11   ar
    34     6     1    1
    35    30    25   ar
    36    34    28    1
    37     9    10    1
    38    23    24    1
@<TRIPOS>MOLECULE
*****
 35 38 0 0 0
SMALL
GASTEIGER

@<TRIPOS>ATOM
      1 N         143.9670  141.6094  161.0980 N.3     1  UNL1       -0.2679
      2 C         144.9353  141.9217  162.2002 C.3     1  UNL1        0.0897
      3 C         144.9681  141.0689  163.4338 C.3     1  UNL1        0.0897
      4 N         144.0325  139.9037  163.5650 N.3     1  UNL1       -0.2680
      5 C         143.0643  139.5913  162.4628 C.3     1  UNL1        0.0897
      6 C         143.0315  140.4442  161.2293 C.3     1  UNL1        0.0897
      7 C         143.9342  142.4622  159.8645 C.3     1  UNL1        0.1080
      8 C         142.9315  143.5716  159.7460 C.3     1  UNL1        0.1661
      9 O         142.8248  144.3528  158.4699 O.3     1  UNL1       -0.3771
     10 H         143.4700  144.0152  157.8292 H       1  UNL1        0.2109
     11 C         139.6809  143.8845  162.0009 C.ar    1  UNL1        0.1510
     12 C         140.5767  143.5565  160.8434 C.ar    1  UNL1        0.0548
     13 C         142.0357  143.8997  160.9035 C.ar    1  UNL1        0.0901
     14 N         142.5988  144.5709  162.1210 N.ar    1  UNL1       -0.2448
     15 C         141.7029  144.8990  163.2784 C.ar    1  UNL1        0.1118
     16 C         140.2439  144.5558  163.2184 C.ar    1  UNL1        0.1213
     17 C         137.7334  142.2410  162.5070 C.3     1  UNL1        0.2525
     18 O         138.2218  143.5414  161.9409 O.3     1  UNL1       -0.4707
     19 C         139.3481  144.8839  164.3760 C.1     1  UNL1        0.1051
     20 N         138.4523  145.2119  165.5335 N.1     1  UNL1       -0.1907
     21 C         144.0653  139.0509  164.7986 C.3     1  UNL1        0.1064
     22 C         142.7964  138.7615  165.5442 C.3     1  UNL1        0.1483
     23 O         141.8894  137.6599  165.0819 O.3     1  UNL1       -0.3786
     24 H         141.1198  137.6065  165.6699 H       1  UNL1        0.2108
     25 C         142.4344  139.5738  166.7523 C.ar    1  UNL1        0.0015
     26 C         142.8613  139.1199  168.1166 C.ar    1  UNL1       -0.0020
     27 C         142.4994  139.9321  169.3246 C.ar    1  UNL1        0.0060
     28 C         141.7105  141.1983  169.1682 C.ar    1  UNL1        0.0748
     29 C         141.2835  141.6522  167.8038 C.ar    1  UNL1        0.0233
     30 C         141.6455  140.8400  166.5958 C.ar    1  UNL1       -0.0238
     31 C         141.2186  141.2939  165.2313 C.3     1  UNL1        0.0306
     32 C         140.5197  142.9337  167.9595 C.3     1  UNL1        0.2352
     33 O         140.4745  143.2718  169.4202 O.3     1  UNL1       -0.4404
     34 C         141.2105  142.1992  170.1673 C.2     1  UNL1        0.3413
     35 O         141.4112  142.1384  171.6525 O.2     1  UNL1       -0.2449
@<TRIPOS>BOND
     1    17    18    1
     2    18    11    1
     3    11    12   ar
     4    12    13   ar
     5    13     8    1
     6     8     9    1
     7     8     7    1
     8     7     1    1
     9     1     2    1
    10     2     3    1
    11     3     4    1
    12     4    21    1
    13    21    22    1
    14    22    23    1
    15    22    25    1
    16    25    26   ar
    17    26    27   ar
    18    27    28   ar
    19    28    29   ar
    20    29    30   ar
    21    30    31    1
    22    29    32    1
    23    32    33    1
    24    33    34    1
    25    34    35    2
    26     4     5    1
    27     5     6    1
    28    13    14   ar
    29    14    15   ar
    30    15    16   ar
    31    16    19    1
    32    19    20    3
    33    16    11   ar
    34     6     1    1
    35    30    25   ar
    36    34    28    1
    37     9    10    1
    38    23    24    1
