@<TRIPOS>MOLECULE
*****
 33 37 0 0 0
SMALL
GASTEIGER

@<TRIPOS>ATOM
      1 C         137.9592  140.4074  161.8148 C.3     1  UNL1        0.0466
      2 C         137.2660  141.1293  162.9320 C.3     1  UNL1        0.0211
      3 C         137.5375  142.5858  163.1664 C.3     1  UNL1        0.0722
      4 N         138.5024  143.3204  162.2835 N.3     1  UNL1       -0.2724
      5 C         139.1957  142.5984  161.1663 C.3     1  UNL1        0.0722
      6 C         138.9241  141.1420  160.9319 C.3     1  UNL1        0.0211
      7 C         137.6877  138.9509  161.5805 C.3     1  UNL1        0.2071
      8 O         138.2395  137.9238  162.5241 O.3     1  UNL1       -0.4602
      9 C         144.0607  137.8829  161.4298 C.3     1  UNL1        0.1305
     10 N         142.9242  138.1337  162.3763 N.ar    1  UNL1       -0.3228
     11 C         141.4668  137.9522  162.0717 C.ar    1  UNL1        0.0806
     12 C         140.6876  138.3165  163.3006 C.ar    1  UNL1        0.0718
     13 C         139.2155  138.3304  163.5882 C.ar    1  UNL1        0.2262
     14 N         138.7193  138.7510  164.9398 N.ar    1  UNL1       -0.2116
     15 C         139.6952  139.1576  166.0039 C.ar    1  UNL1        0.0844
     16 C         139.1991  139.5782  167.3555 C.ar    1  UNL1        0.0192
     17 C         140.1750  139.9848  168.4195 C.ar    1  UNL1        0.0015
     18 C         141.6471  139.9709  168.1319 C.ar    1  UNL1        0.0001
     19 C         142.1433  139.5503  166.7803 C.ar    1  UNL1        0.0015
     20 C         141.1673  139.1437  165.7163 C.ar    1  UNL1        0.0194
     21 C         141.6635  138.7231  164.3646 C.ar    1  UNL1        0.0246
     22 C         143.0458  138.6102  163.7934 C.ar    1  UNL1        0.0762
     23 C         138.7739  144.7768  162.5179 C.3     1  UNL1        0.0768
     24 C         139.5310  145.2118  163.7375 C.3     1  UNL1        0.0437
     25 C         140.8827  144.6298  164.0285 C.ar    1  UNL1       -0.0207
     26 C         142.1218  145.3887  163.6564 C.ar    1  UNL1       -0.0030
     27 C         143.4735  144.8068  163.9473 C.ar    1  UNL1        0.0138
     28 C         143.5858  143.4660  164.6103 C.ar    1  UNL1        0.0415
     29 N         144.9373  142.8841  164.9012 N.pl3   1  UNL1       -0.3570
     30 C         142.3466  142.7071  164.9824 C.ar    1  UNL1        0.0138
     31 C         140.9950  143.2890  164.6915 C.ar    1  UNL1       -0.0030
     32 H         145.7507  143.3822  164.6570 H       1  UNL1        0.1424
     33 H         145.0111  142.0041  165.3364 H       1  UNL1        0.1424
@<TRIPOS>BOND
     1     9    10    1
     2    10    11   ar
     3    11    12   ar
     4    12    13   ar
     5    13     8    1
     6     8     7    1
     7     7     1    1
     8     1     2    1
     9     2     3    1
    10     3     4    1
    11     4    23    1
    12    23    24    1
    13    24    25    1
    14    25    26   ar
    15    26    27   ar
    16    27    28   ar
    17    28    29    1
    18    28    30   ar
    19    30    31   ar
    20     4     5    1
    21     5     6    1
    22    13    14   ar
    23    14    15   ar
    24    15    16   ar
    25    16    17   ar
    26    17    18   ar
    27    18    19   ar
    28    19    20   ar
    29    20    21   ar
    30    21    22   ar
    31    22    10   ar
    32    21    12   ar
    33     6     1    1
    34    20    15   ar
    35    31    25   ar
    36    29    32    1
    37    29    33    1
@<TRIPOS>MOLECULE
*****
 33 37 0 0 0
SMALL
GASTEIGER

@<TRIPOS>ATOM
      1 C         144.2859  141.0683  163.9868 C.3     1  UNL1        0.0466
      2 C         143.5608  141.2781  162.6906 C.3     1  UNL1        0.0211
      3 C         142.9604  142.6161  162.3751 C.3     1  UNL1        0.0722
      4 N         143.0851  143.7442  163.3558 N.3     1  UNL1       -0.2724
      5 C         143.8103  143.5343  164.6521 C.3     1  UNL1        0.0722
      6 C         144.4107  142.1964  164.9675 C.3     1  UNL1        0.0211
      7 C         144.8863  139.7304  164.3022 C.3     1  UNL1        0.2071
      8 O         144.0245  138.6322  164.8510 O.3     1  UNL1       -0.4602
      9 C         138.6065  138.0144  162.5383 C.3     1  UNL1        0.1305
     10 N         139.4838  138.3929  163.6947 N.ar    1  UNL1       -0.3228
     11 C         140.9828  138.3440  163.7172 C.ar    1  UNL1        0.0806
     12 C         141.4414  138.8076  165.0680 C.ar    1  UNL1        0.0718
     13 C         142.8089  138.9677  165.6634 C.ar    1  UNL1        0.2262
     14 N         142.9608  139.4632  167.0709 N.ar    1  UNL1       -0.2116
     15 C         141.7451  139.7987  167.8833 C.ar    1  UNL1        0.0844
     16 C         141.8970  140.2943  169.2909 C.ar    1  UNL1        0.0192
     17 C         140.6815  140.6298  170.1031 C.ar    1  UNL1        0.0015
     18 C         139.3140  140.4697  169.5078 C.ar    1  UNL1        0.0001
     19 C         139.1621  139.9741  168.1002 C.ar    1  UNL1        0.0015
     20 C         140.3777  139.6387  167.2879 C.ar    1  UNL1        0.0194
     21 C         140.2258  139.1431  165.8803 C.ar    1  UNL1        0.0246
     22 C         139.0159  138.8868  165.0316 C.ar    1  UNL1        0.0762
     23 C         142.4848  145.0821  163.0404 C.3     1  UNL1        0.0768
     24 C         141.1117  145.4241  163.5381 C.3     1  UNL1        0.0437
     25 C         140.0271  144.3881  163.5181 C.ar    1  UNL1       -0.0207
     26 C         139.7861  143.5312  164.7255 C.ar    1  UNL1       -0.0030
     27 C         138.7014  142.4952  164.7055 C.ar    1  UNL1        0.0138
     28 C         137.8578  142.3161  163.4782 C.ar    1  UNL1        0.0415
     29 N         136.7732  141.2802  163.4582 N.pl3   1  UNL1       -0.3570
     30 C         138.0989  143.1730  162.2708 C.ar    1  UNL1        0.0138
     31 C         139.1835  144.2090  162.2908 C.ar    1  UNL1       -0.0030
     32 H         136.6150  140.7178  164.2506 H       1  UNL1        0.1424
     33 H         136.2196  141.1627  162.6527 H       1  UNL1        0.1424
@<TRIPOS>BOND
     1     9    10    1
     2    10    11   ar
     3    11    12   ar
     4    12    13   ar
     5    13     8    1
     6     8     7    1
     7     7     1    1
     8     1     2    1
     9     2     3    1
    10     3     4    1
    11     4    23    1
    12    23    24    1
    13    24    25    1
    14    25    26   ar
    15    26    27   ar
    16    27    28   ar
    17    28    29    1
    18    28    30   ar
    19    30    31   ar
    20     4     5    1
    21     5     6    1
    22    13    14   ar
    23    14    15   ar
    24    15    16   ar
    25    16    17   ar
    26    17    18   ar
    27    18    19   ar
    28    19    20   ar
    29    20    21   ar
    30    21    22   ar
    31    22    10   ar
    32    21    12   ar
    33     6     1    1
    34    20    15   ar
    35    31    25   ar
    36    29    32    1
    37    29    33    1
@<TRIPOS>MOLECULE
*****
 33 37 0 0 0
SMALL
GASTEIGER

@<TRIPOS>ATOM
      1 C         139.7782  137.6294  164.3039 C.3     1  UNL1        0.0466
      2 C         141.2234  137.7331  164.6919 C.3     1  UNL1        0.0211
      3 C         142.2658  137.9820  163.6423 C.3     1  UNL1        0.0722
      4 N         141.8629  138.1272  162.2047 N.3     1  UNL1       -0.2724
      5 C         140.4175  138.0234  161.8168 C.3     1  UNL1        0.0722
      6 C         139.3753  137.7745  162.8664 C.3     1  UNL1        0.0211
      7 C         138.7360  137.3805  165.3535 C.3     1  UNL1        0.2071
      8 O         138.1568  138.5305  166.1229 O.3     1  UNL1       -0.4602
      9 C         142.5486  141.0611  169.1878 C.3     1  UNL1        0.1305
     10 N         141.5125  141.1418  168.1060 N.ar    1  UNL1       -0.3228
     11 C         140.5540  140.0544  167.7203 C.ar    1  UNL1        0.0806
     12 C         139.7022  140.5647  166.5960 C.ar    1  UNL1        0.0718
     13 C         138.5890  139.9332  165.8137 C.ar    1  UNL1        0.2262
     14 N         137.9079  140.7045  164.7223 N.ar    1  UNL1       -0.2116
     15 C         138.3400  142.1073  164.4131 C.ar    1  UNL1        0.0844
     16 C         137.6589  142.8785  163.3217 C.ar    1  UNL1        0.0192
     17 C         138.0911  144.2812  163.0126 C.ar    1  UNL1        0.0015
     18 C         139.2044  144.9127  163.7948 C.ar    1  UNL1        0.0001
     19 C         139.8855  144.1414  164.8862 C.ar    1  UNL1        0.0015
     20 C         139.4533  142.7387  165.1954 C.ar    1  UNL1        0.0194
     21 C         140.1344  141.9674  166.2868 C.ar    1  UNL1        0.0246
     22 C         141.2532  142.3241  167.2200 C.ar    1  UNL1        0.0762
     23 C         142.9051  138.3761  161.1551 C.3     1  UNL1        0.0768
     24 C         144.0168  139.3482  161.4179 C.3     1  UNL1        0.0437
     25 C         143.7068  140.7974  161.6499 C.ar    1  UNL1       -0.0207
     26 C         142.2899  141.2833  161.5703 C.ar    1  UNL1       -0.0030
     27 C         141.9799  142.7325  161.8024 C.ar    1  UNL1        0.0138
     28 C         143.0867  143.6957  162.1141 C.ar    1  UNL1        0.0415
     29 N         142.7767  145.1448  162.3462 N.pl3   1  UNL1       -0.3570
     30 C         144.5036  143.2097  162.1937 C.ar    1  UNL1        0.0138
     31 C         144.8136  141.7605  161.9617 C.ar    1  UNL1       -0.0030
     32 H         141.8468  145.4637  162.2939 H       1  UNL1        0.1424
     33 H         143.5032  145.7769  162.5508 H       1  UNL1        0.1424
@<TRIPOS>BOND
     1     9    10    1
     2    10    11   ar
     3    11    12   ar
     4    12    13   ar
     5    13     8    1
     6     8     7    1
     7     7     1    1
     8     1     2    1
     9     2     3    1
    10     3     4    1
    11     4    23    1
    12    23    24    1
    13    24    25    1
    14    25    26   ar
    15    26    27   ar
    16    27    28   ar
    17    28    29    1
    18    28    30   ar
    19    30    31   ar
    20     4     5    1
    21     5     6    1
    22    13    14   ar
    23    14    15   ar
    24    15    16   ar
    25    16    17   ar
    26    17    18   ar
    27    18    19   ar
    28    19    20   ar
    29    20    21   ar
    30    21    22   ar
    31    22    10   ar
    32    21    12   ar
    33     6     1    1
    34    20    15   ar
    35    31    25   ar
    36    29    32    1
    37    29    33    1
@<TRIPOS>MOLECULE
*****
 33 37 0 0 0
SMALL
GASTEIGER

@<TRIPOS>ATOM
      1 C         141.8604  144.6450  162.6302 C.3     1  UNL1        0.0466
      2 C         142.8290  144.8664  163.7540 C.3     1  UNL1        0.0211
      3 C         144.0661  144.0240  163.8548 C.3     1  UNL1        0.0722
      4 N         144.3345  142.9602  162.8319 N.3     1  UNL1       -0.2724
      5 C         143.3659  142.7389  161.7081 C.3     1  UNL1        0.0722
      6 C         142.1289  143.5812  161.6073 C.3     1  UNL1        0.0211
      7 C         140.6234  145.4873  162.5294 C.3     1  UNL1        0.2071
      8 O         139.3538  145.0374  163.1894 O.3     1  UNL1       -0.4602
      9 C         137.3797  139.9497  160.8864 C.3     1  UNL1        0.1305
     10 N         137.9517  140.7081  162.0474 N.ar    1  UNL1       -0.3228
     11 C         138.2987  142.1673  162.0624 C.ar    1  UNL1        0.0806
     12 C         138.8385  142.5015  163.4214 C.ar    1  UNL1        0.0718
     13 C         139.3405  143.7846  164.0143 C.ar    1  UNL1        0.2262
     14 N         139.8292  143.8150  165.4321 N.ar    1  UNL1       -0.2116
     15 C         139.8159  142.5622  166.2571 C.ar    1  UNL1        0.0844
     16 C         140.3046  142.5926  167.6749 C.ar    1  UNL1        0.0192
     17 C         140.2913  141.3399  168.4997 C.ar    1  UNL1        0.0015
     18 C         139.7893  140.0568  167.9068 C.ar    1  UNL1        0.0001
     19 C         139.3006  140.0264  166.4890 C.ar    1  UNL1        0.0015
     20 C         139.3139  141.2791  165.6641 C.ar    1  UNL1        0.0194
     21 C         138.8252  141.2487  164.2462 C.ar    1  UNL1        0.0246
     22 C         138.2771  140.1404  163.3971 C.ar    1  UNL1        0.0762
     23 C         145.5715  142.1179  162.9327 C.3     1  UNL1        0.0768
     24 C         145.5868  140.9116  163.8241 C.3     1  UNL1        0.0437
     25 C         144.4747  139.9079  163.7470 C.ar    1  UNL1       -0.0207
     26 C         143.6297  139.6306  164.9549 C.ar    1  UNL1       -0.0030
     27 C         142.5176  138.6269  164.8778 C.ar    1  UNL1        0.0138
     28 C         142.2506  137.9005  163.5928 C.ar    1  UNL1        0.0415
     29 N         141.1386  136.8969  163.5157 N.pl3   1  UNL1       -0.3570
     30 C         143.0957  138.1779  162.3850 C.ar    1  UNL1        0.0138
     31 C         144.2078  139.1815  162.4621 C.ar    1  UNL1       -0.0030
     32 H         140.5839  136.7148  164.3085 H       1  UNL1        0.1424
     33 H         140.9634  136.4201  162.6724 H       1  UNL1        0.1424
@<TRIPOS>BOND
     1     9    10    1
     2    10    11   ar
     3    11    12   ar
     4    12    13   ar
     5    13     8    1
     6     8     7    1
     7     7     1    1
     8     1     2    1
     9     2     3    1
    10     3     4    1
    11     4    23    1
    12    23    24    1
    13    24    25    1
    14    25    26   ar
    15    26    27   ar
    16    27    28   ar
    17    28    29    1
    18    28    30   ar
    19    30    31   ar
    20     4     5    1
    21     5     6    1
    22    13    14   ar
    23    14    15   ar
    24    15    16   ar
    25    16    17   ar
    26    17    18   ar
    27    18    19   ar
    28    19    20   ar
    29    20    21   ar
    30    21    22   ar
    31    22    10   ar
    32    21    12   ar
    33     6     1    1
    34    20    15   ar
    35    31    25   ar
    36    29    32    1
    37    29    33    1
@<TRIPOS>MOLECULE
*****
 33 37 0 0 0
SMALL
GASTEIGER

@<TRIPOS>ATOM
      1 C         144.2085  140.1706  162.1354 C.3     1  UNL1        0.0466
      2 C         145.0705  140.7371  163.2245 C.3     1  UNL1        0.0211
      3 C         145.0500  142.2100  163.5076 C.3     1  UNL1        0.0722
      4 N         144.1674  143.1164  162.7016 N.3     1  UNL1       -0.2724
      5 C         143.3055  142.5498  161.6125 C.3     1  UNL1        0.0722
      6 C         143.3260  141.0770  161.3294 C.3     1  UNL1        0.0211
      7 C         144.2291  138.6977  161.8524 C.3     1  UNL1        0.2071
      8 O         143.2156  137.7966  162.4933 O.3     1  UNL1       -0.4602
      9 C         137.4808  138.8892  161.4916 C.3     1  UNL1        0.1305
     10 N         138.6497  138.8741  162.4317 N.ar    1  UNL1       -0.3228
     11 C         140.0466  138.4441  162.0947 C.ar    1  UNL1        0.0806
     12 C         140.8870  138.5906  163.3285 C.ar    1  UNL1        0.0718
     13 C         142.3380  138.3172  163.5928 C.ar    1  UNL1        0.2262
     14 N         142.9115  138.5644  164.9566 N.ar    1  UNL1       -0.2116
     15 C         142.0339  139.0850  166.0562 C.ar    1  UNL1        0.0844
     16 C         142.6073  139.3322  167.4200 C.ar    1  UNL1        0.0192
     17 C         141.7298  139.8528  168.5194 C.ar    1  UNL1        0.0015
     18 C         140.2788  140.1261  168.2551 C.ar    1  UNL1        0.0001
     19 C         139.7053  139.8789  166.8913 C.ar    1  UNL1        0.0015
     20 C         140.5829  139.3584  165.7918 C.ar    1  UNL1        0.0194
     21 C         140.0095  139.1111  164.4279 C.ar    1  UNL1        0.0246
     22 C         138.6267  139.2864  163.8737 C.ar    1  UNL1        0.0762
     23 C         144.1469  144.5893  162.9846 C.3     1  UNL1        0.0768
     24 C         143.1286  145.1575  163.9281 C.3     1  UNL1        0.0437
     25 C         141.6658  144.9625  163.6592 C.ar    1  UNL1       -0.0207
     26 C         141.0144  145.6684  162.5071 C.ar    1  UNL1       -0.0030
     27 C         139.5516  145.4734  162.2382 C.ar    1  UNL1        0.0138
     28 C         138.7402  144.5724  163.1213 C.ar    1  UNL1        0.0415
     29 N         137.2775  144.3774  162.8525 N.pl3   1  UNL1       -0.3570
     30 C         139.3917  143.8665  164.2734 C.ar    1  UNL1        0.0138
     31 C         140.8545  144.0615  164.5423 C.ar    1  UNL1       -0.0030
     32 H         136.8500  144.8407  162.0963 H       1  UNL1        0.1424
     33 H         136.7450  143.7860  163.4321 H       1  UNL1        0.1424
@<TRIPOS>BOND
     1     9    10    1
     2    10    11   ar
     3    11    12   ar
     4    12    13   ar
     5    13     8    1
     6     8     7    1
     7     7     1    1
     8     1     2    1
     9     2     3    1
    10     3     4    1
    11     4    23    1
    12    23    24    1
    13    24    25    1
    14    25    26   ar
    15    26    27   ar
    16    27    28   ar
    17    28    29    1
    18    28    30   ar
    19    30    31   ar
    20     4     5    1
    21     5     6    1
    22    13    14   ar
    23    14    15   ar
    24    15    16   ar
    25    16    17   ar
    26    17    18   ar
    27    18    19   ar
    28    19    20   ar
    29    20    21   ar
    30    21    22   ar
    31    22    10   ar
    32    21    12   ar
    33     6     1    1
    34    20    15   ar
    35    31    25   ar
    36    29    32    1
    37    29    33    1
@<TRIPOS>MOLECULE
*****
 33 37 0 0 0
SMALL
GASTEIGER

@<TRIPOS>ATOM
      1 C         138.3886  142.4272  163.2023 C.3     1  UNL1        0.0466
      2 C         139.3630  142.4958  162.0639 C.3     1  UNL1        0.0211
      3 C         140.4330  143.5470  162.0549 C.3     1  UNL1        0.0722
      4 N         140.5287  144.5296  163.1843 N.3     1  UNL1       -0.2724
      5 C         139.5542  144.4609  164.3227 C.3     1  UNL1        0.0722
      6 C         138.4843  143.4097  164.3316 C.3     1  UNL1        0.0211
      7 C         137.3186  141.3761  163.2112 C.3     1  UNL1        0.2071
      8 O         137.6181  140.0055  163.7421 O.3     1  UNL1       -0.4602
      9 C         142.4367  137.7428  161.1446 C.3     1  UNL1        0.1305
     10 N         141.7554  138.2663  162.3742 N.ar    1  UNL1       -0.3228
     11 C         140.3441  138.7683  162.4542 C.ar    1  UNL1        0.0806
     12 C         140.0823  139.1920  163.8690 C.ar    1  UNL1        0.0718
     13 C         138.8676  139.7654  164.5366 C.ar    1  UNL1        0.2262
     14 N         138.9024  140.0988  165.9987 N.ar    1  UNL1       -0.2116
     15 C         140.1519  139.8588  166.7932 C.ar    1  UNL1        0.0844
     16 C         140.1866  140.1921  168.2552 C.ar    1  UNL1        0.0192
     17 C         141.4360  139.9521  169.0497 C.ar    1  UNL1        0.0015
     18 C         142.6508  139.3787  168.3821 C.ar    1  UNL1        0.0001
     19 C         142.6160  139.0453  166.9201 C.ar    1  UNL1        0.0015
     20 C         141.3666  139.2853  166.1256 C.ar    1  UNL1        0.0194
     21 C         141.3318  138.9520  164.6635 C.ar    1  UNL1        0.0246
     22 C         142.3658  138.3799  163.7397 C.ar    1  UNL1        0.0762
     23 C         141.5987  145.5807  163.1753 C.3     1  UNL1        0.0768
     24 C         142.8802  145.3527  163.9206 C.3     1  UNL1        0.0437
     25 C         143.5183  143.9952  163.9177 C.ar    1  UNL1       -0.0207
     26 C         143.2889  143.0561  165.0646 C.ar    1  UNL1       -0.0030
     27 C         143.9270  141.6986  165.0617 C.ar    1  UNL1        0.0138
     28 C         144.7944  141.2801  163.9117 C.ar    1  UNL1        0.0415
     29 N         145.4325  139.9226  163.9087 N.pl3   1  UNL1       -0.3570
     30 C         145.0238  142.2192  162.7647 C.ar    1  UNL1        0.0138
     31 C         144.3857  143.5767  162.7677 C.ar    1  UNL1       -0.0030
     32 H         145.2819  139.3063  164.6615 H       1  UNL1        0.1424
     33 H         146.0018  139.6480  163.1540 H       1  UNL1        0.1424
@<TRIPOS>BOND
     1     9    10    1
     2    10    11   ar
     3    11    12   ar
     4    12    13   ar
     5    13     8    1
     6     8     7    1
     7     7     1    1
     8     1     2    1
     9     2     3    1
    10     3     4    1
    11     4    23    1
    12    23    24    1
    13    24    25    1
    14    25    26   ar
    15    26    27   ar
    16    27    28   ar
    17    28    29    1
    18    28    30   ar
    19    30    31   ar
    20     4     5    1
    21     5     6    1
    22    13    14   ar
    23    14    15   ar
    24    15    16   ar
    25    16    17   ar
    26    17    18   ar
    27    18    19   ar
    28    19    20   ar
    29    20    21   ar
    30    21    22   ar
    31    22    10   ar
    32    21    12   ar
    33     6     1    1
    34    20    15   ar
    35    31    25   ar
    36    29    32    1
    37    29    33    1
@<TRIPOS>MOLECULE
*****
 33 37 0 0 0
SMALL
GASTEIGER

@<TRIPOS>ATOM
      1 C         138.3093  143.2488  162.7097 C.3     1  UNL1        0.0466
      2 C         138.6949  142.8336  161.3209 C.3     1  UNL1        0.0211
      3 C         138.4857  141.4162  160.8765 C.3     1  UNL1        0.0722
      4 N         137.8910  140.4141  161.8210 N.3     1  UNL1       -0.2724
      5 C         137.5054  140.8294  163.2099 C.3     1  UNL1        0.0722
      6 C         137.7145  142.2467  163.6542 C.3     1  UNL1        0.0211
      7 C         138.5185  144.6661  163.1540 C.3     1  UNL1        0.2071
      8 O         139.6667  145.0074  164.0567 O.3     1  UNL1       -0.4602
      9 C         140.2101  141.4941  168.7945 C.3     1  UNL1        0.1305
     10 N         140.7342  141.9747  167.4738 N.ar    1  UNL1       -0.3228
     11 C         140.1006  143.0164  166.6000 C.ar    1  UNL1        0.0806
     12 C         140.9588  143.1835  165.3812 C.ar    1  UNL1        0.0718
     13 C         140.8307  144.0689  164.1772 C.ar    1  UNL1        0.2262
     14 N         141.8666  144.0159  163.0936 N.ar    1  UNL1       -0.2116
     15 C         143.0306  143.0775  163.2140 C.ar    1  UNL1        0.0844
     16 C         144.0665  143.0245  162.1305 C.ar    1  UNL1        0.0192
     17 C         145.2304  142.0861  162.2510 C.ar    1  UNL1        0.0015
     18 C         145.3585  141.2006  163.4550 C.ar    1  UNL1        0.0001
     19 C         144.3226  141.2536  164.5385 C.ar    1  UNL1        0.0015
     20 C         143.1587  142.1921  164.4180 C.ar    1  UNL1        0.0194
     21 C         142.1227  142.2451  165.5016 C.ar    1  UNL1        0.0246
     22 C         141.9840  141.4980  166.7949 C.ar    1  UNL1        0.0762
     23 C         137.6818  138.9968  161.3768 C.3     1  UNL1        0.0768
     24 C         138.8412  138.0461  161.3318 C.3     1  UNL1        0.0437
     25 C         139.8741  138.0710  162.4192 C.ar    1  UNL1       -0.0207
     26 C         139.4858  137.7423  163.8302 C.ar    1  UNL1       -0.0030
     27 C         140.5187  137.7671  164.9176 C.ar    1  UNL1        0.0138
     28 C         141.9401  138.1207  164.5939 C.ar    1  UNL1        0.0415
     29 N         142.9730  138.1456  165.6813 N.pl3   1  UNL1       -0.3570
     30 C         142.3284  138.4494  163.1828 C.ar    1  UNL1        0.0138
     31 C         141.2955  138.4245  162.0955 C.ar    1  UNL1       -0.0030
     32 H         142.7182  137.9298  166.6074 H       1  UNL1        0.1424
     33 H         143.9059  138.3776  165.4688 H       1  UNL1        0.1424
@<TRIPOS>BOND
     1     9    10    1
     2    10    11   ar
     3    11    12   ar
     4    12    13   ar
     5    13     8    1
     6     8     7    1
     7     7     1    1
     8     1     2    1
     9     2     3    1
    10     3     4    1
    11     4    23    1
    12    23    24    1
    13    24    25    1
    14    25    26   ar
    15    26    27   ar
    16    27    28   ar
    17    28    29    1
    18    28    30   ar
    19    30    31   ar
    20     4     5    1
    21     5     6    1
    22    13    14   ar
    23    14    15   ar
    24    15    16   ar
    25    16    17   ar
    26    17    18   ar
    27    18    19   ar
    28    19    20   ar
    29    20    21   ar
    30    21    22   ar
    31    22    10   ar
    32    21    12   ar
    33     6     1    1
    34    20    15   ar
    35    31    25   ar
    36    29    32    1
    37    29    33    1
@<TRIPOS>MOLECULE
*****
 33 37 0 0 0
SMALL
GASTEIGER

@<TRIPOS>ATOM
      1 C         140.0690  144.3460  162.7995 C.3     1  UNL1        0.0466
      2 C         140.5580  144.2643  164.2152 C.3     1  UNL1        0.0211
      3 C         142.0110  144.0170  164.4937 C.3     1  UNL1        0.0722
      4 N         142.9750  143.8513  163.3565 N.3     1  UNL1       -0.2724
      5 C         142.4860  143.9330  161.9408 C.3     1  UNL1        0.0722
      6 C         141.0330  144.1803  161.6623 C.3     1  UNL1        0.0211
      7 C         138.6160  144.5933  162.5211 C.3     1  UNL1        0.2071
      8 O         137.7436  143.4728  162.0379 O.3     1  UNL1       -0.4602
      9 C         139.3309  139.4427  157.9975 C.3     1  UNL1        0.1305
     10 N         139.0388  139.7970  159.4256 N.ar    1  UNL1       -0.3228
     11 C         138.6273  141.1475  159.9325 C.ar    1  UNL1        0.0806
     12 C         138.4410  141.0481  161.4176 C.ar    1  UNL1        0.0718
     13 C         138.0399  142.0609  162.4488 C.ar    1  UNL1        0.2262
     14 N         137.9350  141.6618  163.8909 N.ar    1  UNL1       -0.2116
     15 C         138.2313  140.2498  164.3018 C.ar    1  UNL1        0.0844
     16 C         138.1265  139.8507  165.7439 C.ar    1  UNL1        0.0192
     17 C         138.4228  138.4389  166.1547 C.ar    1  UNL1        0.0015
     18 C         138.8239  137.4261  165.1235 C.ar    1  UNL1        0.0001
     19 C         138.9288  137.8252  163.6814 C.ar    1  UNL1        0.0015
     20 C         138.6325  139.2371  163.2706 C.ar    1  UNL1        0.0194
     21 C         138.7373  139.6363  161.8284 C.ar    1  UNL1        0.0246
     22 C         139.1067  138.8630  160.5973 C.ar    1  UNL1        0.0762
     23 C         144.4280  143.6040  163.6350 C.3     1  UNL1        0.0768
     24 C         144.8838  142.2510  164.0949 C.3     1  UNL1        0.0437
     25 C         144.1825  141.0177  163.6077 C.ar    1  UNL1       -0.0207
     26 C         143.1050  140.3892  164.4406 C.ar    1  UNL1       -0.0030
     27 C         142.4037  139.1559  163.9535 C.ar    1  UNL1        0.0138
     28 C         142.7800  138.5511  162.6334 C.ar    1  UNL1        0.0415
     29 N         142.0788  137.3179  162.1462 N.pl3   1  UNL1       -0.3570
     30 C         143.8576  139.1797  161.8004 C.ar    1  UNL1        0.0138
     31 C         144.5589  140.4130  162.2876 C.ar    1  UNL1       -0.0030
     32 H         141.3716  136.9054  162.6928 H       1  UNL1        0.1424
     33 H         142.3258  136.9210  161.2797 H       1  UNL1        0.1424
@<TRIPOS>BOND
     1     9    10    1
     2    10    11   ar
     3    11    12   ar
     4    12    13   ar
     5    13     8    1
     6     8     7    1
     7     7     1    1
     8     1     2    1
     9     2     3    1
    10     3     4    1
    11     4    23    1
    12    23    24    1
    13    24    25    1
    14    25    26   ar
    15    26    27   ar
    16    27    28   ar
    17    28    29    1
    18    28    30   ar
    19    30    31   ar
    20     4     5    1
    21     5     6    1
    22    13    14   ar
    23    14    15   ar
    24    15    16   ar
    25    16    17   ar
    26    17    18   ar
    27    18    19   ar
    28    19    20   ar
    29    20    21   ar
    30    21    22   ar
    31    22    10   ar
    32    21    12   ar
    33     6     1    1
    34    20    15   ar
    35    31    25   ar
    36    29    32    1
    37    29    33    1
@<TRIPOS>MOLECULE
*****
 33 37 0 0 0
SMALL
GASTEIGER

@<TRIPOS>ATOM
      1 C         143.8388  142.9164  163.5047 C.3     1  UNL1        0.0466
      2 C         143.3961  142.9466  162.0718 C.3     1  UNL1        0.0211
      3 C         142.2180  143.7828  161.6682 C.3     1  UNL1        0.0722
      4 N         141.4825  144.5888  162.6976 N.3     1  UNL1       -0.2724
      5 C         141.9253  144.5586  164.1305 C.3     1  UNL1        0.0722
      6 C         143.1034  143.7224  164.5340 C.3     1  UNL1        0.0211
      7 C         145.0169  142.0803  163.9082 C.3     1  UNL1        0.2071
      8 O         144.8024  140.7630  164.5928 O.3     1  UNL1       -0.4602
      9 C         143.0011  137.3372  160.1089 C.3     1  UNL1        0.1305
     10 N         142.7283  137.9783  161.4374 N.ar    1  UNL1       -0.3228
     11 C         143.6723  138.8579  162.2023 C.ar    1  UNL1        0.0806
     12 C         142.9911  139.2755  163.4717 C.ar    1  UNL1        0.0718
     13 C         143.4373  140.1414  164.6124 C.ar    1  UNL1        0.2262
     14 N         142.5186  140.3858  165.7726 N.ar    1  UNL1       -0.2116
     15 C         141.1535  139.7643  165.7922 C.ar    1  UNL1        0.0844
     16 C         140.2347  140.0087  166.9524 C.ar    1  UNL1        0.0192
     17 C         138.8697  139.3872  166.9720 C.ar    1  UNL1        0.0015
     18 C         138.4235  138.5213  165.8313 C.ar    1  UNL1        0.0001
     19 C         139.3422  138.2769  164.6711 C.ar    1  UNL1        0.0015
     20 C         140.7072  138.8984  164.6516 C.ar    1  UNL1        0.0194
     21 C         141.6261  138.6540  163.4913 C.ar    1  UNL1        0.0246
     22 C         141.4636  137.8523  162.2340 C.ar    1  UNL1        0.0762
     23 C         140.3044  145.4249  162.2941 C.3     1  UNL1        0.0768
     24 C         138.9131  144.9639  162.6130 C.3     1  UNL1        0.0437
     25 C         138.5319  143.5285  162.4024 C.ar    1  UNL1       -0.0207
     26 C         138.6991  142.8985  161.0514 C.ar    1  UNL1       -0.0030
     27 C         138.3178  141.4631  160.8408 C.ar    1  UNL1        0.0138
     28 C         137.7693  140.6577  161.9812 C.ar    1  UNL1        0.0415
     29 N         137.3881  139.2224  161.7707 N.pl3   1  UNL1       -0.3570
     30 C         137.6021  141.2877  163.3322 C.ar    1  UNL1        0.0138
     31 C         137.9834  142.7231  163.5428 C.ar    1  UNL1       -0.0030
     32 H         137.4978  138.8089  160.8840 H       1  UNL1        0.1424
     33 H         137.0281  138.6938  162.5191 H       1  UNL1        0.1424
@<TRIPOS>BOND
     1     9    10    1
     2    10    11   ar
     3    11    12   ar
     4    12    13   ar
     5    13     8    1
     6     8     7    1
     7     7     1    1
     8     1     2    1
     9     2     3    1
    10     3     4    1
    11     4    23    1
    12    23    24    1
    13    24    25    1
    14    25    26   ar
    15    26    27   ar
    16    27    28   ar
    17    28    29    1
    18    28    30   ar
    19    30    31   ar
    20     4     5    1
    21     5     6    1
    22    13    14   ar
    23    14    15   ar
    24    15    16   ar
    25    16    17   ar
    26    17    18   ar
    27    18    19   ar
    28    19    20   ar
    29    20    21   ar
    30    21    22   ar
    31    22    10   ar
    32    21    12   ar
    33     6     1    1
    34    20    15   ar
    35    31    25   ar
    36    29    32    1
    37    29    33    1
