@<TRIPOS>MOLECULE
*****
 21 22 0 0 0
SMALL
GASTEIGER

@<TRIPOS>ATOM
      1 C         139.0214  140.4406  165.8813 C.2     1  UNL1        0.2254
      2 O         138.4216  141.1527  164.7053 O.2     1  UNL1       -0.2749
      3 N         139.8681  141.1952  166.8630 N.am    1  UNL1       -0.2756
      4 C         140.4678  140.4830  168.0391 C.3     1  UNL1        0.0927
      5 C         141.8311  139.8595  168.0908 C.3     1  UNL1        0.0383
      6 C         142.0155  139.2604  169.4536 C.3     1  UNL1        0.0704
      7 N         140.7661  139.5138  170.2442 N.3     1  UNL1       -0.2960
      8 C         139.8096  140.2693  169.3699 C.3     1  UNL1        0.0887
      9 H         140.9869  140.0654  171.0732 H       1  UNL1        0.1233
     10 C         139.6163  137.9686  165.3473 C.3     1  UNL1        0.0096
     11 C         138.7744  138.9738  166.0757 C.3     1  UNL1        0.0767
     12 C         137.6857  138.5124  166.9986 C.3     1  UNL1        0.0096
     13 C         140.1150  142.6619  166.6686 C.3     1  UNL1        0.1209
     14 C         141.1385  143.1249  165.6745 C.ar    1  UNL1        0.0083
     15 C         142.5201  142.5412  165.6935 C.ar    1  UNL1       -0.0009
     16 C         143.5436  143.0042  164.6995 C.ar    1  UNL1        0.0112
     17 C         143.1854  144.0507  163.6864 C.ar    1  UNL1        0.0585
     18 CL        144.2088  144.5137  162.6923 Cl      1  UNL1       -0.0822
     19 C         141.8037  144.6344  163.6674 C.ar    1  UNL1        0.0225
     20 C         140.7803  144.1714  164.6615 C.ar    1  UNL1        0.0561
     21 CL        139.3986  144.7551  164.6425 Cl      1  UNL1       -0.0825
@<TRIPOS>BOND
     1    10    11    1
     2    11    12    1
     3    11     1    1
     4     1     2    2
     5     1     3   am
     6     3    13    1
     7    13    14    1
     8    14    15   ar
     9    15    16   ar
    10    16    17   ar
    11    17    18    1
    12    17    19   ar
    13    19    20   ar
    14    20    21    1
    15     4     3    1
    16     4     5    1
    17     5     6    1
    18     6     7    1
    19     7     8    1
    20    20    14   ar
    21     8     4    1
    22     7     9    1
@<TRIPOS>MOLECULE
*****
 21 22 0 0 0
SMALL
GASTEIGER

@<TRIPOS>ATOM
      1 C         142.1940  141.2150  167.2112 C.2     1  UNL1        0.2254
      2 O         143.2350  142.2937  167.1601 O.2     1  UNL1       -0.2749
      3 N         140.7552  141.5481  166.9482 N.am    1  UNL1       -0.2756
      4 C         139.7142  140.4693  166.9994 C.3     1  UNL1        0.0927
      5 C         139.1447  139.7372  165.8205 C.3     1  UNL1        0.0383
      6 C         138.1384  138.7486  166.3308 C.3     1  UNL1        0.0704
      7 N         138.0862  138.8699  167.8251 N.3     1  UNL1       -0.2960
      8 C         139.0600  139.9333  168.2382 C.3     1  UNL1        0.0887
      9 H         138.3424  137.9805  168.2537 H       1  UNL1        0.1233
     10 C         142.9863  138.8712  166.4181 C.3     1  UNL1        0.0096
     11 C         142.5917  139.8031  167.5252 C.3     1  UNL1        0.0767
     12 C         142.5947  139.3233  168.9464 C.3     1  UNL1        0.0096
     13 C         140.3575  142.9598  166.6342 C.3     1  UNL1        0.1209
     14 C         140.2917  143.4210  165.2083 C.ar    1  UNL1        0.0083
     15 C         141.1873  142.8006  164.1773 C.ar    1  UNL1       -0.0009
     16 C         141.1215  143.2617  162.7515 C.ar    1  UNL1        0.0112
     17 C         140.1600  144.3432  162.3566 C.ar    1  UNL1        0.0585
     18 CL        140.0942  144.8043  160.9307 Cl      1  UNL1       -0.0822
     19 C         139.2644  144.9635  163.3876 C.ar    1  UNL1        0.0225
     20 C         139.3302  144.5024  164.8134 C.ar    1  UNL1        0.0561
     21 CL        138.4345  145.1228  165.8444 Cl      1  UNL1       -0.0825
@<TRIPOS>BOND
     1    10    11    1
     2    11    12    1
     3    11     1    1
     4     1     2    2
     5     1     3   am
     6     3    13    1
     7    13    14    1
     8    14    15   ar
     9    15    16   ar
    10    16    17   ar
    11    17    18    1
    12    17    19   ar
    13    19    20   ar
    14    20    21    1
    15     4     3    1
    16     4     5    1
    17     5     6    1
    18     6     7    1
    19     7     8    1
    20    20    14   ar
    21     8     4    1
    22     7     9    1
@<TRIPOS>MOLECULE
*****
 21 22 0 0 0
SMALL
GASTEIGER

@<TRIPOS>ATOM
      1 C         140.8026  139.8261  169.1208 C.2     1  UNL1        0.2254
      2 O         139.6191  139.7599  170.0399 O.2     1  UNL1       -0.2749
      3 N         140.5964  139.9118  167.6375 N.am    1  UNL1       -0.2756
      4 C         141.7801  139.9780  166.7184 C.3     1  UNL1        0.0927
      5 C         142.5868  138.8096  166.2345 C.3     1  UNL1        0.0383
      6 C         143.6701  139.3336  165.3388 C.3     1  UNL1        0.0704
      7 N         143.5327  140.8257  165.2692 N.3     1  UNL1       -0.2960
      8 C         142.3646  141.2239  166.1219 C.3     1  UNL1        0.0887
      9 H         143.3710  141.1138  164.3042 H       1  UNL1        0.1233
     10 C         142.8299  138.5024  170.0632 C.3     1  UNL1        0.0096
     11 C         142.1924  139.8064  169.6850 C.3     1  UNL1        0.0767
     12 C         142.9446  141.0908  169.8708 C.3     1  UNL1        0.0096
     13 C         139.2067  139.9314  167.0734 C.3     1  UNL1        0.1209
     14 C         138.9649  139.4922  165.6596 C.ar    1  UNL1        0.0083
     15 C         139.0766  138.0414  165.2954 C.ar    1  UNL1       -0.0009
     16 C         138.8348  137.6022  163.8818 C.ar    1  UNL1        0.0112
     17 C         138.4814  138.6138  162.8322 C.ar    1  UNL1        0.0585
     18 CL        138.2395  138.1746  161.4184 Cl      1  UNL1       -0.0822
     19 C         138.3697  140.0647  163.1963 C.ar    1  UNL1        0.0225
     20 C         138.6115  140.5039  164.6100 C.ar    1  UNL1        0.0561
     21 CL        138.4999  141.9547  164.9741 Cl      1  UNL1       -0.0825
@<TRIPOS>BOND
     1    10    11    1
     2    11    12    1
     3    11     1    1
     4     1     2    2
     5     1     3   am
     6     3    13    1
     7    13    14    1
     8    14    15   ar
     9    15    16   ar
    10    16    17   ar
    11    17    18    1
    12    17    19   ar
    13    19    20   ar
    14    20    21    1
    15     4     3    1
    16     4     5    1
    17     5     6    1
    18     6     7    1
    19     7     8    1
    20    20    14   ar
    21     8     4    1
    22     7     9    1
@<TRIPOS>MOLECULE
*****
 21 22 0 0 0
SMALL
GASTEIGER

@<TRIPOS>ATOM
      1 C         141.7264  140.3663  168.4599 C.2     1  UNL1        0.2254
      2 O         142.9630  140.0529  169.2489 O.2     1  UNL1       -0.2749
      3 N         141.5181  139.7412  167.1123 N.am    1  UNL1       -0.2756
      4 C         140.2814  140.0547  166.3233 C.3     1  UNL1        0.0927
      5 C         140.1237  141.1765  165.3401 C.3     1  UNL1        0.0383
      6 C         138.7302  141.1165  164.7881 C.3     1  UNL1        0.0704
      7 N         138.0268  139.9576  165.4301 N.3     1  UNL1       -0.2960
      8 C         138.9855  139.3013  166.3789 C.3     1  UNL1        0.0887
      9 H         137.7357  139.2904  164.7156 H       1  UNL1        0.1233
     10 C         140.8086  142.7783  168.7600 C.3     1  UNL1        0.0096
     11 C         140.6981  141.3048  169.0184 C.3     1  UNL1        0.0767
     12 C         139.5595  140.7699  169.8352 C.3     1  UNL1        0.0096
     13 C         142.5463  138.8027  166.5538 C.3     1  UNL1        0.1209
     14 C         142.9544  138.9078  165.1142 C.ar    1  UNL1        0.0083
     15 C         144.0325  139.8686  164.7085 C.ar    1  UNL1       -0.0009
     16 C         144.4407  139.9737  163.2690 C.ar    1  UNL1        0.0112
     17 C         143.7707  139.1181  162.2351 C.ar    1  UNL1        0.0585
     18 CL        144.1788  139.2232  160.7955 Cl      1  UNL1       -0.0822
     19 C         142.6925  138.1573  162.6408 C.ar    1  UNL1        0.0225
     20 C         142.2844  138.0522  164.0803 C.ar    1  UNL1        0.0561
     21 CL        141.2063  137.0914  164.4859 Cl      1  UNL1       -0.0825
@<TRIPOS>BOND
     1    10    11    1
     2    11    12    1
     3    11     1    1
     4     1     2    2
     5     1     3   am
     6     3    13    1
     7    13    14    1
     8    14    15   ar
     9    15    16   ar
    10    16    17   ar
    11    17    18    1
    12    17    19   ar
    13    19    20   ar
    14    20    21    1
    15     4     3    1
    16     4     5    1
    17     5     6    1
    18     6     7    1
    19     7     8    1
    20    20    14   ar
    21     8     4    1
    22     7     9    1
@<TRIPOS>MOLECULE
*****
 21 22 0 0 0
SMALL
GASTEIGER

@<TRIPOS>ATOM
      1 C         140.3299  139.9986  168.8737 C.2     1  UNL1        0.2254
      2 O         139.1537  139.8780  169.7967 O.2     1  UNL1       -0.2749
      3 N         140.1355  139.8780  167.3913 N.am    1  UNL1       -0.2756
      4 C         141.3118  139.9986  166.4682 C.3     1  UNL1        0.0927
      5 C         142.1970  138.8750  166.0169 C.3     1  UNL1        0.0383
      6 C         143.2417  139.4459  165.1043 C.3     1  UNL1        0.0704
      7 N         143.0020  140.9224  164.9916 N.3     1  UNL1       -0.2960
      8 C         141.8092  141.2639  165.8346 C.3     1  UNL1        0.0887
      9 H         142.8209  141.1704  164.0190 H       1  UNL1        0.1233
     10 C         142.5429  139.0816  169.8797 C.3     1  UNL1        0.0096
     11 C         141.7007  140.2398  169.4331 C.3     1  UNL1        0.0767
     12 C         142.2292  141.6390  169.5460 C.3     1  UNL1        0.0096
     13 C         138.7648  139.6369  166.8318 C.3     1  UNL1        0.1209
     14 C         138.5161  139.7968  165.3612 C.ar    1  UNL1        0.0083
     15 C         138.1057  141.1303  164.8106 C.ar    1  UNL1       -0.0009
     16 C         137.8570  141.2903  163.3400 C.ar    1  UNL1        0.0112
     17 C         138.0188  140.1166  162.4201 C.ar    1  UNL1        0.0585
     18 CL        137.7702  140.2765  160.9494 Cl      1  UNL1       -0.0822
     19 C         138.4293  138.7831  162.9707 C.ar    1  UNL1        0.0225
     20 C         138.6779  138.6232  164.4412 C.ar    1  UNL1        0.0561
     21 CL        139.0884  137.2896  164.9918 Cl      1  UNL1       -0.0825
@<TRIPOS>BOND
     1    10    11    1
     2    11    12    1
     3    11     1    1
     4     1     2    2
     5     1     3   am
     6     3    13    1
     7    13    14    1
     8    14    15   ar
     9    15    16   ar
    10    16    17   ar
    11    17    18    1
    12    17    19   ar
    13    19    20   ar
    14    20    21    1
    15     4     3    1
    16     4     5    1
    17     5     6    1
    18     6     7    1
    19     7     8    1
    20    20    14   ar
    21     8     4    1
    22     7     9    1
@<TRIPOS>MOLECULE
*****
 21 22 0 0 0
SMALL
GASTEIGER

@<TRIPOS>ATOM
      1 C         142.3386  140.1396  168.7191 C.2     1  UNL1        0.2254
      2 O         143.0232  139.1101  169.5684 O.2     1  UNL1       -0.2749
      3 N         142.3505  140.0077  167.2250 N.am    1  UNL1       -0.2756
      4 C         141.6658  141.0373  166.3757 C.3     1  UNL1        0.0927
      5 C         140.2163  141.0395  165.9899 C.3     1  UNL1        0.0383
      6 C         139.9650  142.2490  165.1389 C.3     1  UNL1        0.0704
      7 N         141.2593  142.9942  164.9989 N.3     1  UNL1       -0.2960
      8 C         142.3104  142.2453  165.7633 C.3     1  UNL1        0.0887
      9 H         141.1596  143.9355  165.3789 H       1  UNL1        0.1233
     10 C         142.3833  142.5838  169.5990 C.3     1  UNL1        0.0096
     11 C         141.6420  141.3011  169.3640 C.3     1  UNL1        0.0767
     12 C         140.2042  141.1799  169.7739 C.3     1  UNL1        0.0096
     13 C         143.0470  138.8463  166.5801 C.3     1  UNL1        0.1209
     14 C         142.8390  138.5625  165.1219 C.ar    1  UNL1        0.0083
     15 C         141.6489  137.7662  164.6752 C.ar    1  UNL1       -0.0009
     16 C         141.4408  137.4824  163.2171 C.ar    1  UNL1        0.0112
     17 C         142.4228  137.9950  162.2057 C.ar    1  UNL1        0.0585
     18 CL        142.2148  137.7112  160.7475 Cl      1  UNL1       -0.0822
     19 C         143.6129  138.7913  162.6524 C.ar    1  UNL1        0.0225
     20 C         143.8210  139.0751  164.1106 C.ar    1  UNL1        0.0561
     21 CL        145.0110  139.8714  164.5573 Cl      1  UNL1       -0.0825
@<TRIPOS>BOND
     1    10    11    1
     2    11    12    1
     3    11     1    1
     4     1     2    2
     5     1     3   am
     6     3    13    1
     7    13    14    1
     8    14    15   ar
     9    15    16   ar
    10    16    17   ar
    11    17    18    1
    12    17    19   ar
    13    19    20   ar
    14    20    21    1
    15     4     3    1
    16     4     5    1
    17     5     6    1
    18     6     7    1
    19     7     8    1
    20    20    14   ar
    21     8     4    1
    22     7     9    1
@<TRIPOS>MOLECULE
*****
 21 22 0 0 0
SMALL
GASTEIGER

@<TRIPOS>ATOM
      1 C         142.4827  141.6133  167.8905 C.2     1  UNL1        0.2254
      2 O         143.3514  141.9135  166.7051 O.2     1  UNL1       -0.2749
      3 N         141.5219  140.4623  167.8439 N.am    1  UNL1       -0.2756
      4 C         140.6532  140.1621  169.0294 C.3     1  UNL1        0.0927
      5 C         139.1724  140.3850  169.1161 C.3     1  UNL1        0.0383
      6 C         138.7166  139.9469  170.4766 C.3     1  UNL1        0.0704
      7 N         139.9159  139.4534  171.2304 N.3     1  UNL1       -0.2960
      8 C         141.1127  139.5863  170.3360 C.3     1  UNL1        0.0887
      9 H         139.7839  138.4756  171.4890 H       1  UNL1        0.1233
     10 C         141.4100  143.3146  169.5352 C.3     1  UNL1        0.0096
     11 C         142.5746  142.4641  169.1225 C.3     1  UNL1        0.0767
     12 C         143.8311  142.4645  169.9416 C.3     1  UNL1        0.0096
     13 C         141.4299  139.6115  166.6120 C.3     1  UNL1        0.1209
     14 C         140.3961  139.9129  165.5678 C.ar    1  UNL1        0.0083
     15 C         139.7884  141.2819  165.4873 C.ar    1  UNL1       -0.0009
     16 C         138.7546  141.5834  164.4431 C.ar    1  UNL1        0.0112
     17 C         138.3286  140.5159  163.4794 C.ar    1  UNL1        0.0585
     18 CL        137.2947  140.8174  162.4352 Cl      1  UNL1       -0.0822
     19 C         138.9363  139.1469  163.5599 C.ar    1  UNL1        0.0225
     20 C         139.9701  138.8454  164.6040 C.ar    1  UNL1        0.0561
     21 CL        140.5778  137.4764  164.6845 Cl      1  UNL1       -0.0825
@<TRIPOS>BOND
     1    10    11    1
     2    11    12    1
     3    11     1    1
     4     1     2    2
     5     1     3   am
     6     3    13    1
     7    13    14    1
     8    14    15   ar
     9    15    16   ar
    10    16    17   ar
    11    17    18    1
    12    17    19   ar
    13    19    20   ar
    14    20    21    1
    15     4     3    1
    16     4     5    1
    17     5     6    1
    18     6     7    1
    19     7     8    1
    20    20    14   ar
    21     8     4    1
    22     7     9    1
@<TRIPOS>MOLECULE
*****
 21 22 0 0 0
SMALL
GASTEIGER

@<TRIPOS>ATOM
      1 C         141.1733  143.6658  164.1783 C.2     1  UNL1        0.2254
      2 O         142.4331  144.4595  164.3591 O.2     1  UNL1       -0.2749
      3 N         141.1659  142.1941  164.4682 N.am    1  UNL1       -0.2756
      4 C         139.9060  141.4003  164.2874 C.3     1  UNL1        0.0927
      5 C         139.4568  140.7361  163.0197 C.3     1  UNL1        0.0383
      6 C         138.1472  140.0567  163.2912 C.3     1  UNL1        0.0704
      7 N         137.7872  140.3012  164.7268 N.3     1  UNL1       -0.2960
      8 C         138.8741  141.1316  165.3424 C.3     1  UNL1        0.0887
      9 H         137.7093  139.4120  165.2204 H       1  UNL1        0.1233
     10 C         139.6590  144.4996  162.2388 C.3     1  UNL1        0.0096
     11 C         139.9208  144.3437  163.7075 C.3     1  UNL1        0.0767
     12 C         138.9300  144.8657  164.7054 C.3     1  UNL1        0.0096
     13 C         142.4184  141.5161  164.9390 C.3     1  UNL1        0.1209
     14 C         142.5766  141.1538  166.3860 C.ar    1  UNL1        0.0083
     15 C         142.8693  142.2210  167.3987 C.ar    1  UNL1       -0.0009
     16 C         143.0275  141.8587  168.8456 C.ar    1  UNL1        0.0112
     17 C         142.8931  140.4293  169.2799 C.ar    1  UNL1        0.0585
     18 CL        143.0513  140.0670  170.7269 Cl      1  UNL1       -0.0822
     19 C         142.6003  139.3621  168.2673 C.ar    1  UNL1        0.0225
     20 C         142.4421  139.7244  166.8203 C.ar    1  UNL1        0.0561
     21 CL        142.1494  138.6572  165.8077 Cl      1  UNL1       -0.0825
@<TRIPOS>BOND
     1    10    11    1
     2    11    12    1
     3    11     1    1
     4     1     2    2
     5     1     3   am
     6     3    13    1
     7    13    14    1
     8    14    15   ar
     9    15    16   ar
    10    16    17   ar
    11    17    18    1
    12    17    19   ar
    13    19    20   ar
    14    20    21    1
    15     4     3    1
    16     4     5    1
    17     5     6    1
    18     6     7    1
    19     7     8    1
    20    20    14   ar
    21     8     4    1
    22     7     9    1
@<TRIPOS>MOLECULE
*****
 21 22 0 0 0
SMALL
GASTEIGER

@<TRIPOS>ATOM
      1 C         142.8267  141.2499  163.7774 C.2     1  UNL1        0.2254
      2 O         143.2207  139.8027  163.7904 O.2     1  UNL1       -0.2749
      3 N         141.4503  141.6486  163.3341 N.am    1  UNL1       -0.2756
      4 C         141.0563  143.0959  163.3211 C.3     1  UNL1        0.0927
      5 C         141.2056  144.0398  162.1650 C.3     1  UNL1        0.0383
      6 C         140.6854  145.3807  162.5912 C.3     1  UNL1        0.0704
      7 N         140.2146  145.2653  164.0108 N.3     1  UNL1       -0.2960
      8 C         140.4438  143.8532  164.4619 C.3     1  UNL1        0.0887
      9 H         139.2210  145.4891  164.0653 H       1  UNL1        0.1233
     10 C         143.8655  142.7296  165.6433 C.3     1  UNL1        0.0096
     11 C         143.8092  142.2987  164.2077 C.3     1  UNL1        0.0767
     12 C         144.7352  142.9164  163.2023 C.3     1  UNL1        0.0096
     13 C         140.4678  140.5999  162.9039 C.3     1  UNL1        0.1209
     14 C         139.7058  139.8187  163.9330 C.ar    1  UNL1        0.0083
     15 C         138.8514  140.5346  164.9368 C.ar    1  UNL1       -0.0009
     16 C         138.0894  139.7535  165.9660 C.ar    1  UNL1        0.0112
     17 C         138.1817  138.2565  165.9913 C.ar    1  UNL1        0.0585
     18 CL        137.4197  137.4754  167.0205 Cl      1  UNL1       -0.0822
     19 C         139.0361  137.5407  164.9875 C.ar    1  UNL1        0.0225
     20 C         139.7982  138.3218  163.9584 C.ar    1  UNL1        0.0561
     21 CL        140.6526  137.6060  162.9546 Cl      1  UNL1       -0.0825
@<TRIPOS>BOND
     1    10    11    1
     2    11    12    1
     3    11     1    1
     4     1     2    2
     5     1     3   am
     6     3    13    1
     7    13    14    1
     8    14    15   ar
     9    15    16   ar
    10    16    17   ar
    11    17    18    1
    12    17    19   ar
    13    19    20   ar
    14    20    21    1
    15     4     3    1
    16     4     5    1
    17     5     6    1
    18     6     7    1
    19     7     8    1
    20    20    14   ar
    21     8     4    1
    22     7     9    1
