@<TRIPOS>MOLECULE
*****
 37 42 0 0 0
SMALL
GASTEIGER

@<TRIPOS>ATOM
      1 N         143.1771  142.8966  164.6108 N.3     1  UNL1       -0.2703
      2 C         142.1545  143.9873  164.7321 C.3     1  UNL1        0.0736
      3 C         141.7241  144.7505  163.5146 C.3     1  UNL1        0.0331
      4 C         142.3164  144.4231  162.1759 C.3     1  UNL1        0.0570
      5 C         143.3390  143.3325  162.0547 C.3     1  UNL1        0.0331
      6 C         143.7694  142.5692  163.2721 C.3     1  UNL1        0.0736
      7 N         141.8860  145.1864  160.9584 N.3     1  UNL1       -0.2934
      8 H         142.6601  145.1444  160.2956 H       1  UNL1        0.1236
      9 C         140.6530  144.7728  160.2109 C.3     1  UNL1        0.1152
     10 C         139.8635  143.5819  160.6672 C.ar    1  UNL1        0.0782
     11 C         140.2673  142.2037  160.2341 C.ar    1  UNL1        0.0562
     12 C         139.4777  141.0128  160.6904 C.ar    1  UNL1        0.1752
     13 C         138.2844  141.1999  161.5798 C.ar    1  UNL1        0.1914
     14 C         137.8807  142.5781  162.0129 C.ar    1  UNL1        0.1384
     15 N         138.6702  143.7691  161.5566 N.ar    1  UNL1       -0.2434
     16 O         137.4949  140.0089  162.0361 O.3     1  UNL1       -0.4668
     17 C         137.8986  138.6307  161.6030 C.3     1  UNL1        0.2527
     18 C         139.0920  138.4435  160.7136 C.3     1  UNL1        0.2526
     19 O         139.8815  139.6345  160.2573 O.3     1  UNL1       -0.4683
     20 C         143.6075  142.1334  165.8282 C.3     1  UNL1        0.1056
     21 O         139.5216  138.9706  164.7225 O.2     1  UNL1       -0.2645
     22 C         139.5881  139.5136  166.1192 C.ar    1  UNL1        0.2886
     23 C         138.5279  139.1506  167.1162 C.ar    1  UNL1        0.1974
     24 F         137.4011  138.2446  166.7165 F       1  UNL1       -0.1991
     25 C         138.5944  139.6935  168.5129 C.ar    1  UNL1        0.0551
     26 C         139.7211  140.5995  168.9126 C.ar    1  UNL1        0.0994
     27 N         139.7876  141.1425  170.3093 N.ar    1  UNL1       -0.2400
     28 C         140.9143  142.0484  170.7089 C.ar    1  UNL1        0.1282
     29 C         141.9745  142.4114  169.7119 C.ar    1  UNL1        0.1589
     30 F         143.1013  143.3174  170.1115 F       1  UNL1       -0.2027
     31 C         141.9081  141.8684  168.3152 C.ar    1  UNL1        0.0512
     32 C         140.7814  140.9625  167.9156 C.ar    1  UNL1        0.0808
     33 N         140.7149  140.4195  166.5188 N.ar    1  UNL1       -0.2896
     34 C         141.9361  141.0232  165.8910 C.3     1  UNL1        0.1416
     35 C         142.6250  141.8597  166.9281 C.3     1  UNL1        0.1459
     36 O         143.5193  142.7535  167.7353 O.3     1  UNL1       -0.3793
     37 H         144.2571  143.0566  167.1833 H       1  UNL1        0.2108
@<TRIPOS>BOND
     1    21    22    2
     2    22    23   ar
     3    23    24    1
     4    23    25   ar
     5    25    26   ar
     6    26    27   ar
     7    27    28   ar
     8    28    29   ar
     9    29    30    1
    10    29    31   ar
    11    31    32   ar
    12    32    33   ar
    13    33    34    1
    14    34    35    1
    15    35    36    1
    16    35    20    1
    17    20     1    1
    18     1     2    1
    19     2     3    1
    20     3     4    1
    21     4     7    1
    22     7     9    1
    23     9    10    1
    24    10    11   ar
    25    11    12   ar
    26    12    13   ar
    27    13    14   ar
    28    14    15   ar
    29    13    16    1
    30    16    17    1
    31    17    18    1
    32    18    19    1
    33     4     5    1
    34     5     6    1
    35    33    22   ar
    36     6     1    1
    37    32    26   ar
    38    15    10   ar
    39    35    31    1
    40    19    12    1
    41    36    37    1
    42     7     8    1
@<TRIPOS>MOLECULE
*****
 37 42 0 0 0
SMALL
GASTEIGER

@<TRIPOS>ATOM
      1 N         143.8075  141.6653  164.6928 N.3     1  UNL1       -0.2703
      2 C         143.7597  142.1248  163.2657 C.3     1  UNL1        0.0736
      3 C         144.0476  141.1573  162.1562 C.3     1  UNL1        0.0331
      4 C         144.3834  139.7303  162.4737 C.3     1  UNL1        0.0570
      5 C         144.4312  139.2707  163.9008 C.3     1  UNL1        0.0331
      6 C         144.1433  140.2382  165.0103 C.3     1  UNL1        0.0736
      7 N         144.6713  138.7628  161.3641 N.3     1  UNL1       -0.2934
      8 H         145.5368  138.2821  161.6098 H       1  UNL1        0.1236
      9 C         143.6703  137.7013  161.0159 C.3     1  UNL1        0.1152
     10 C         142.2032  137.9767  161.1636 C.ar    1  UNL1        0.0782
     11 C         141.4935  138.8242  160.1497 C.ar    1  UNL1        0.0562
     12 C         140.0264  139.0995  160.2974 C.ar    1  UNL1        0.1752
     13 C         139.2690  138.5274  161.4589 C.ar    1  UNL1        0.1914
     14 C         139.9789  137.6798  162.4728 C.ar    1  UNL1        0.1384
     15 N         141.4460  137.4045  162.3251 N.ar    1  UNL1       -0.2434
     16 O         137.8019  138.8027  161.6066 O.3     1  UNL1       -0.4668
     17 C         137.0921  139.6502  160.5928 C.3     1  UNL1        0.2527
     18 C         137.8494  140.2224  159.4313 C.3     1  UNL1        0.2526
     19 O         139.3165  139.9470  159.2836 O.3     1  UNL1       -0.4683
     20 C         143.5196  142.6327  165.8023 C.3     1  UNL1        0.1056
     21 O         139.0545  139.8954  165.1015 O.2     1  UNL1       -0.2645
     22 C         139.4738  140.1390  166.5210 C.ar    1  UNL1        0.2886
     23 C         138.6379  139.6141  167.6505 C.ar    1  UNL1        0.1974
     24 F         137.3828  138.8455  167.3605 F       1  UNL1       -0.1991
     25 C         139.0571  139.8576  169.0700 C.ar    1  UNL1        0.0551
     26 C         140.3123  140.6261  169.3600 C.ar    1  UNL1        0.0994
     27 N         140.7315  140.8697  170.7795 N.ar    1  UNL1       -0.2400
     28 C         141.9866  141.6382  171.0694 C.ar    1  UNL1        0.1282
     29 C         142.8224  142.1631  169.9399 C.ar    1  UNL1        0.1589
     30 F         144.0776  142.9316  170.2300 F       1  UNL1       -0.2027
     31 C         142.4032  141.9196  168.5205 C.ar    1  UNL1        0.0512
     32 C         141.1482  141.1511  168.2305 C.ar    1  UNL1        0.0808
     33 N         140.7289  140.9075  166.8110 N.ar    1  UNL1       -0.2896
     34 C         141.8226  141.5873  166.0417 C.3     1  UNL1        0.1416
     35 C         142.7892  142.1716  167.0287 C.3     1  UNL1        0.1459
     36 O         143.9087  142.8524  167.7593 O.3     1  UNL1       -0.3793
     37 H         144.5259  143.2381  167.1181 H       1  UNL1        0.2108
@<TRIPOS>BOND
     1    21    22    2
     2    22    23   ar
     3    23    24    1
     4    23    25   ar
     5    25    26   ar
     6    26    27   ar
     7    27    28   ar
     8    28    29   ar
     9    29    30    1
    10    29    31   ar
    11    31    32   ar
    12    32    33   ar
    13    33    34    1
    14    34    35    1
    15    35    36    1
    16    35    20    1
    17    20     1    1
    18     1     2    1
    19     2     3    1
    20     3     4    1
    21     4     7    1
    22     7     9    1
    23     9    10    1
    24    10    11   ar
    25    11    12   ar
    26    12    13   ar
    27    13    14   ar
    28    14    15   ar
    29    13    16    1
    30    16    17    1
    31    17    18    1
    32    18    19    1
    33     4     5    1
    34     5     6    1
    35    33    22   ar
    36     6     1    1
    37    32    26   ar
    38    15    10   ar
    39    35    31    1
    40    19    12    1
    41    36    37    1
    42     7     8    1
@<TRIPOS>MOLECULE
*****
 37 42 0 0 0
SMALL
GASTEIGER

@<TRIPOS>ATOM
      1 N         138.3919  139.0022  164.5309 N.3     1  UNL1       -0.2703
      2 C         137.8947  140.3882  164.2445 C.3     1  UNL1        0.0736
      3 C         137.6599  140.8230  162.8282 C.3     1  UNL1        0.0331
      4 C         137.9223  139.8719  161.6984 C.3     1  UNL1        0.0570
      5 C         138.4195  138.4860  161.9847 C.3     1  UNL1        0.0331
      6 C         138.6543  138.0512  163.4010 C.3     1  UNL1        0.0736
      7 N         137.6875  140.3069  160.2820 N.3     1  UNL1       -0.2934
      8 H         136.9868  141.0474  160.3138 H       1  UNL1        0.1236
      9 C         138.8284  140.8253  159.4577 C.3     1  UNL1        0.1152
     10 C         139.8874  141.6761  160.0939 C.ar    1  UNL1        0.0782
     11 C         141.2876  141.1550  160.2281 C.ar    1  UNL1        0.0562
     12 C         142.3466  142.0057  160.8642 C.ar    1  UNL1        0.1752
     13 C         142.0056  143.3775  161.3662 C.ar    1  UNL1        0.1914
     14 C         140.6053  143.8985  161.2319 C.ar    1  UNL1        0.1384
     15 N         139.5463  143.0477  160.5958 N.ar    1  UNL1       -0.2434
     16 O         143.0646  144.2282  162.0023 O.3     1  UNL1       -0.4668
     17 C         144.4648  143.7072  162.1365 C.3     1  UNL1        0.2527
     18 C         144.8059  142.3354  161.6346 C.3     1  UNL1        0.2526
     19 O         143.7469  141.4847  160.9985 O.3     1  UNL1       -0.4683
     20 C         138.6267  138.5673  165.9470 C.3     1  UNL1        0.1056
     21 O         142.9786  141.0341  164.2453 O.2     1  UNL1       -0.2645
     22 C         142.5555  141.3210  165.6555 C.ar    1  UNL1        0.2886
     23 C         143.3567  142.2657  166.5015 C.ar    1  UNL1        0.1974
     24 F         144.5811  142.9235  165.9372 F       1  UNL1       -0.1991
     25 C         142.9337  142.5526  167.9117 C.ar    1  UNL1        0.0551
     26 C         141.7093  141.8948  168.4760 C.ar    1  UNL1        0.0994
     27 N         141.2863  142.1817  169.8862 N.ar    1  UNL1       -0.2400
     28 C         140.0620  141.5239  170.4504 C.ar    1  UNL1        0.1282
     29 C         139.2608  140.5792  169.6045 C.ar    1  UNL1        0.1589
     30 F         138.0364  139.9214  170.1688 F       1  UNL1       -0.2027
     31 C         139.6838  140.2923  168.1943 C.ar    1  UNL1        0.0512
     32 C         140.9081  140.9501  167.6300 C.ar    1  UNL1        0.0808
     33 N         141.3312  140.6632  166.2198 N.ar    1  UNL1       -0.2896
     34 C         140.2753  139.6986  165.7675 C.3     1  UNL1        0.1416
     35 C         139.3242  139.4845  166.9074 C.3     1  UNL1        0.1459
     36 O         138.2272  139.0786  167.8467 O.3     1  UNL1       -0.3793
     37 H         137.6335  138.4549  167.4001 H       1  UNL1        0.2108
@<TRIPOS>BOND
     1    21    22    2
     2    22    23   ar
     3    23    24    1
     4    23    25   ar
     5    25    26   ar
     6    26    27   ar
     7    27    28   ar
     8    28    29   ar
     9    29    30    1
    10    29    31   ar
    11    31    32   ar
    12    32    33   ar
    13    33    34    1
    14    34    35    1
    15    35    36    1
    16    35    20    1
    17    20     1    1
    18     1     2    1
    19     2     3    1
    20     3     4    1
    21     4     7    1
    22     7     9    1
    23     9    10    1
    24    10    11   ar
    25    11    12   ar
    26    12    13   ar
    27    13    14   ar
    28    14    15   ar
    29    13    16    1
    30    16    17    1
    31    17    18    1
    32    18    19    1
    33     4     5    1
    34     5     6    1
    35    33    22   ar
    36     6     1    1
    37    32    26   ar
    38    15    10   ar
    39    35    31    1
    40    19    12    1
    41    36    37    1
    42     7     8    1
@<TRIPOS>MOLECULE
*****
 37 42 0 0 0
SMALL
GASTEIGER

@<TRIPOS>ATOM
      1 N         141.2066  138.7964  161.3317 N.3     1  UNL1       -0.2703
      2 C         140.6080  139.2693  160.0402 C.3     1  UNL1        0.0736
      3 C         141.2259  138.8646  158.7347 C.3     1  UNL1        0.0331
      4 C         142.4424  137.9872  158.7206 C.3     1  UNL1        0.0570
      5 C         143.0410  137.5143  160.0121 C.3     1  UNL1        0.0331
      6 C         142.4231  137.9190  161.3177 C.3     1  UNL1        0.0736
      7 N         143.0603  137.5826  157.4150 N.3     1  UNL1       -0.2934
      8 H         143.8927  137.0375  157.6395 H       1  UNL1        0.1236
      9 C         142.2684  136.7768  156.4282 C.3     1  UNL1        0.1152
     10 C         142.4055  135.2834  156.3975 C.ar    1  UNL1        0.0782
     11 C         143.4708  134.6113  157.2121 C.ar    1  UNL1        0.0562
     12 C         143.6079  133.1179  157.1814 C.ar    1  UNL1        0.1752
     13 C         142.6798  132.2966  156.3363 C.ar    1  UNL1        0.1914
     14 C         141.6145  132.9689  155.5218 C.ar    1  UNL1        0.1384
     15 N         141.4774  134.4623  155.5525 N.ar    1  UNL1       -0.2434
     16 O         142.8169  130.8032  156.3056 O.3     1  UNL1       -0.4668
     17 C         143.8821  130.1310  157.1201 C.3     1  UNL1        0.2527
     18 C         144.8103  130.9522  157.9652 C.3     1  UNL1        0.2526
     19 O         144.6732  132.4456  157.9959 O.3     1  UNL1       -0.4683
     20 C         140.5888  139.2010  162.6373 C.3     1  UNL1        0.1056
     21 O         144.5155  142.6368  163.4717 O.2     1  UNL1       -0.2645
     22 C         143.1228  143.1933  163.4995 C.ar    1  UNL1        0.2886
     23 C         142.9042  144.6552  163.7545 C.ar    1  UNL1        0.1974
     24 F         144.0784  145.5606  163.9817 F       1  UNL1       -0.1991
     25 C         141.5116  145.2118  163.7822 C.ar    1  UNL1        0.0551
     26 C         140.3374  144.3064  163.5549 C.ar    1  UNL1        0.0994
     27 N         138.9448  144.8629  163.5827 N.ar    1  UNL1       -0.2400
     28 C         137.7707  143.9575  163.3554 C.ar    1  UNL1        0.1282
     29 C         137.9892  142.4956  163.1004 C.ar    1  UNL1        0.1589
     30 F         136.8150  141.5902  162.8731 F       1  UNL1       -0.2027
     31 C         139.3818  141.9390  163.0726 C.ar    1  UNL1        0.0512
     32 C         140.5559  142.8444  163.2999 C.ar    1  UNL1        0.0808
     33 N         141.9487  142.2879  163.2722 N.ar    1  UNL1       -0.2896
     34 C         141.6986  140.8353  162.9940 C.3     1  UNL1        0.1416
     35 C         140.2166  140.6339  162.8788 C.3     1  UNL1        0.1459
     36 O         138.8124  140.1329  162.7131 O.3     1  UNL1       -0.3793
     37 H         138.8279  139.1786  162.5399 H       1  UNL1        0.2108
@<TRIPOS>BOND
     1    21    22    2
     2    22    23   ar
     3    23    24    1
     4    23    25   ar
     5    25    26   ar
     6    26    27   ar
     7    27    28   ar
     8    28    29   ar
     9    29    30    1
    10    29    31   ar
    11    31    32   ar
    12    32    33   ar
    13    33    34    1
    14    34    35    1
    15    35    36    1
    16    35    20    1
    17    20     1    1
    18     1     2    1
    19     2     3    1
    20     3     4    1
    21     4     7    1
    22     7     9    1
    23     9    10    1
    24    10    11   ar
    25    11    12   ar
    26    12    13   ar
    27    13    14   ar
    28    14    15   ar
    29    13    16    1
    30    16    17    1
    31    17    18    1
    32    18    19    1
    33     4     5    1
    34     5     6    1
    35    33    22   ar
    36     6     1    1
    37    32    26   ar
    38    15    10   ar
    39    35    31    1
    40    19    12    1
    41    36    37    1
    42     7     8    1
@<TRIPOS>MOLECULE
*****
 37 42 0 0 0
SMALL
GASTEIGER

@<TRIPOS>ATOM
      1 N         139.7799  138.4581  160.1508 N.3     1  UNL1       -0.2703
      2 C         139.5554  138.5597  158.6713 C.3     1  UNL1        0.0736
      3 C         140.7132  138.4309  157.7264 C.3     1  UNL1        0.0331
      4 C         142.0956  138.2005  158.2611 C.3     1  UNL1        0.0570
      5 C         142.3202  138.0989  159.7407 C.3     1  UNL1        0.0331
      6 C         141.1623  138.2277  160.6855 C.3     1  UNL1        0.0736
      7 N         143.2535  138.0717  157.3161 N.3     1  UNL1       -0.2934
      8 H         144.0131  137.6357  157.8388 H       1  UNL1        0.1236
      9 C         143.1001  137.2921  156.0438 C.3     1  UNL1        0.1152
     10 C         142.9031  135.8060  156.0940 C.ar    1  UNL1        0.0782
     11 C         143.8648  134.9475  156.8610 C.ar    1  UNL1        0.0562
     12 C         143.6678  133.4614  156.9112 C.ar    1  UNL1        0.1752
     13 C         142.5091  132.8337  156.1946 C.ar    1  UNL1        0.1914
     14 C         141.5474  133.6923  155.4276 C.ar    1  UNL1        0.1384
     15 N         141.7445  135.1784  155.3774 N.ar    1  UNL1       -0.2434
     16 O         142.3121  131.3475  156.2448 O.3     1  UNL1       -0.4668
     17 C         143.2738  130.4890  157.0117 C.3     1  UNL1        0.2527
     18 C         144.4324  131.1166  157.7283 C.3     1  UNL1        0.2526
     19 O         144.6294  132.6028  157.6781 O.3     1  UNL1       -0.4683
     20 C         138.6222  138.5869  161.0958 C.3     1  UNL1        0.1056
     21 O         138.8842  143.8588  161.3358 O.2     1  UNL1       -0.2645
     22 C         139.0174  143.1228  162.6361 C.ar    1  UNL1        0.2886
     23 C         139.2134  143.8852  163.9129 C.ar    1  UNL1        0.1974
     24 F         139.2762  145.3838  163.8895 F       1  UNL1       -0.1991
     25 C         139.3466  143.1492  165.2131 C.ar    1  UNL1        0.0551
     26 C         139.2838  141.6507  165.2365 C.ar    1  UNL1        0.0994
     27 N         139.4169  140.9147  166.5367 N.ar    1  UNL1       -0.2400
     28 C         139.3541  139.4162  166.5600 C.ar    1  UNL1        0.1282
     29 C         139.1581  138.6537  165.2832 C.ar    1  UNL1        0.1589
     30 F         139.0953  137.1552  165.3066 F       1  UNL1       -0.2027
     31 C         139.0250  139.3897  163.9830 C.ar    1  UNL1        0.0512
     32 C         139.0878  140.8882  163.9597 C.ar    1  UNL1        0.0808
     33 N         138.9546  141.6243  162.6594 N.ar    1  UNL1       -0.2896
     34 C         138.7807  140.5005  161.6812 C.3     1  UNL1        0.1416
     35 C         138.8214  139.2104  162.4454 C.3     1  UNL1        0.1459
     36 O         138.8204  137.7898  162.9274 O.3     1  UNL1       -0.3793
     37 H         138.6981  137.1925  162.1730 H       1  UNL1        0.2108
@<TRIPOS>BOND
     1    21    22    2
     2    22    23   ar
     3    23    24    1
     4    23    25   ar
     5    25    26   ar
     6    26    27   ar
     7    27    28   ar
     8    28    29   ar
     9    29    30    1
    10    29    31   ar
    11    31    32   ar
    12    32    33   ar
    13    33    34    1
    14    34    35    1
    15    35    36    1
    16    35    20    1
    17    20     1    1
    18     1     2    1
    19     2     3    1
    20     3     4    1
    21     4     7    1
    22     7     9    1
    23     9    10    1
    24    10    11   ar
    25    11    12   ar
    26    12    13   ar
    27    13    14   ar
    28    14    15   ar
    29    13    16    1
    30    16    17    1
    31    17    18    1
    32    18    19    1
    33     4     5    1
    34     5     6    1
    35    33    22   ar
    36     6     1    1
    37    32    26   ar
    38    15    10   ar
    39    35    31    1
    40    19    12    1
    41    36    37    1
    42     7     8    1
@<TRIPOS>MOLECULE
*****
 37 42 0 0 0
SMALL
GASTEIGER

@<TRIPOS>ATOM
      1 N         138.6520  140.0455  162.7558 N.3     1  UNL1       -0.2703
      2 C         138.8420  140.9456  161.5710 C.3     1  UNL1        0.0736
      3 C         139.4142  140.3979  160.2972 C.3     1  UNL1        0.0331
      4 C         139.7965  138.9501  160.2082 C.3     1  UNL1        0.0570
      5 C         139.6066  138.0501  161.3930 C.3     1  UNL1        0.0331
      6 C         139.0343  138.5978  162.6668 C.3     1  UNL1        0.0736
      7 N         140.3689  138.4025  158.9344 N.3     1  UNL1       -0.2934
      8 H         139.9387  138.9236  158.1703 H       1  UNL1        0.1236
      9 C         141.8503  138.4370  158.7019 C.3     1  UNL1        0.1152
     10 C         142.7229  139.3108  159.5533 C.ar    1  UNL1        0.0782
     11 C         143.1104  138.8670  160.9328 C.ar    1  UNL1        0.0562
     12 C         143.9830  139.7409  161.7843 C.ar    1  UNL1        0.1752
     13 C         144.4681  141.0584  161.2563 C.ar    1  UNL1        0.1914
     14 C         144.0805  141.5022  159.8768 C.ar    1  UNL1        0.1384
     15 N         143.2079  140.6283  159.0254 N.ar    1  UNL1       -0.2434
     16 O         145.3407  141.9323  162.1078 O.3     1  UNL1       -0.4668
     17 C         145.7282  141.4886  163.4872 C.3     1  UNL1        0.2527
     18 C         145.2432  140.1710  164.0152 C.3     1  UNL1        0.2526
     19 O         144.3706  139.2972  163.1638 O.3     1  UNL1       -0.4683
     20 C         138.0797  140.5931  164.0295 C.3     1  UNL1        0.1056
     21 O         142.6660  143.1980  163.7124 O.2     1  UNL1       -0.2645
     22 C         142.3335  142.5888  165.0423 C.ar    1  UNL1        0.2886
     23 C         143.2835  142.7370  166.1936 C.ar    1  UNL1        0.1974
     24 F         144.5660  143.4943  166.0151 F       1  UNL1       -0.1991
     25 C         142.9510  142.1278  167.5234 C.ar    1  UNL1        0.0551
     26 C         141.6685  141.3705  167.7019 C.ar    1  UNL1        0.0994
     27 N         141.3361  140.7614  169.0317 N.ar    1  UNL1       -0.2400
     28 C         140.0537  140.0041  169.2101 C.ar    1  UNL1        0.1282
     29 C         139.1037  139.8560  168.0588 C.ar    1  UNL1        0.1589
     30 F         137.8212  139.0987  168.2373 F       1  UNL1       -0.2027
     31 C         139.4361  140.4651  166.7290 C.ar    1  UNL1        0.0512
     32 C         140.7186  141.2224  166.5505 C.ar    1  UNL1        0.0808
     33 N         141.0511  141.8316  165.2207 N.ar    1  UNL1       -0.2896
     34 C         139.8595  141.4469  164.3948 C.3     1  UNL1        0.1416
     35 C         138.9271  140.6580  165.2656 C.3     1  UNL1        0.1459
     36 O         137.8175  139.8555  165.8780 O.3     1  UNL1       -0.3793
     37 H         137.1300  139.6942  165.2130 H       1  UNL1        0.2108
@<TRIPOS>BOND
     1    21    22    2
     2    22    23   ar
     3    23    24    1
     4    23    25   ar
     5    25    26   ar
     6    26    27   ar
     7    27    28   ar
     8    28    29   ar
     9    29    30    1
    10    29    31   ar
    11    31    32   ar
    12    32    33   ar
    13    33    34    1
    14    34    35    1
    15    35    36    1
    16    35    20    1
    17    20     1    1
    18     1     2    1
    19     2     3    1
    20     3     4    1
    21     4     7    1
    22     7     9    1
    23     9    10    1
    24    10    11   ar
    25    11    12   ar
    26    12    13   ar
    27    13    14   ar
    28    14    15   ar
    29    13    16    1
    30    16    17    1
    31    17    18    1
    32    18    19    1
    33     4     5    1
    34     5     6    1
    35    33    22   ar
    36     6     1    1
    37    32    26   ar
    38    15    10   ar
    39    35    31    1
    40    19    12    1
    41    36    37    1
    42     7     8    1
@<TRIPOS>MOLECULE
*****
 37 42 0 0 0
SMALL
GASTEIGER

@<TRIPOS>ATOM
      1 N         140.8091  138.4955  159.7939 N.3     1  UNL1       -0.2703
      2 C         142.1365  138.6045  160.4839 C.3     1  UNL1        0.0736
      3 C         143.3358  139.0969  159.7294 C.3     1  UNL1        0.0331
      4 C         143.2077  139.4802  158.2848 C.3     1  UNL1        0.0570
      5 C         141.8803  139.3711  157.5948 C.3     1  UNL1        0.0331
      6 C         140.6811  138.8788  158.3493 C.3     1  UNL1        0.0736
      7 N         144.4071  139.9725  157.5303 N.3     1  UNL1       -0.2934
      8 H         144.2610  139.7255  156.5515 H       1  UNL1        0.1236
      9 C         144.7664  141.4285  157.5605 C.3     1  UNL1        0.1152
     10 C         143.7583  142.4404  158.0184 C.ar    1  UNL1        0.0782
     11 C         143.4820  142.6142  159.4825 C.ar    1  UNL1        0.0562
     12 C         142.4739  143.6261  159.9405 C.ar    1  UNL1        0.1752
     13 C         141.7421  144.4642  158.9345 C.ar    1  UNL1        0.1914
     14 C         142.0185  144.2904  157.4704 C.ar    1  UNL1        0.1384
     15 N         143.0266  143.2785  157.0124 N.ar    1  UNL1       -0.2434
     16 O         140.7340  145.4761  159.3925 O.3     1  UNL1       -0.4668
     17 C         140.4576  145.6499  160.8565 C.3     1  UNL1        0.2527
     18 C         141.1894  144.8118  161.8626 C.3     1  UNL1        0.2526
     19 O         142.1975  143.7999  161.4046 O.3     1  UNL1       -0.4683
     20 C         139.6099  138.0032  160.5483 C.3     1  UNL1        0.1056
     21 O         138.1433  143.0791  160.4830 O.2     1  UNL1       -0.2645
     22 C         138.1460  142.4009  161.8210 C.ar    1  UNL1        0.2886
     23 C         137.7456  143.1635  163.0491 C.ar    1  UNL1        0.1974
     24 F         137.3427  144.6042  162.9392 F       1  UNL1       -0.1991
     25 C         137.7483  142.4854  164.3871 C.ar    1  UNL1        0.0551
     26 C         138.1513  141.0447  164.4969 C.ar    1  UNL1        0.0994
     27 N         138.1539  140.3666  165.8349 N.ar    1  UNL1       -0.2400
     28 C         138.5569  138.9259  165.9447 C.ar    1  UNL1        0.1282
     29 C         138.9572  138.1634  164.7166 C.ar    1  UNL1        0.1589
     30 F         139.3602  136.7226  164.8265 F       1  UNL1       -0.2027
     31 C         138.9545  138.8415  163.3787 C.ar    1  UNL1        0.0512
     32 C         138.5516  140.2821  163.2688 C.ar    1  UNL1        0.0808
     33 N         138.5489  140.9603  161.9308 N.ar    1  UNL1       -0.2896
     34 C         139.0020  139.8571  161.0211 C.3     1  UNL1        0.1416
     35 C         139.2362  138.6338  161.8570 C.3     1  UNL1        0.1459
     36 O         139.5485  137.2786  162.4193 O.3     1  UNL1       -0.3793
     37 H         139.8249  136.6868  161.7021 H       1  UNL1        0.2108
@<TRIPOS>BOND
     1    21    22    2
     2    22    23   ar
     3    23    24    1
     4    23    25   ar
     5    25    26   ar
     6    26    27   ar
     7    27    28   ar
     8    28    29   ar
     9    29    30    1
    10    29    31   ar
    11    31    32   ar
    12    32    33   ar
    13    33    34    1
    14    34    35    1
    15    35    36    1
    16    35    20    1
    17    20     1    1
    18     1     2    1
    19     2     3    1
    20     3     4    1
    21     4     7    1
    22     7     9    1
    23     9    10    1
    24    10    11   ar
    25    11    12   ar
    26    12    13   ar
    27    13    14   ar
    28    14    15   ar
    29    13    16    1
    30    16    17    1
    31    17    18    1
    32    18    19    1
    33     4     5    1
    34     5     6    1
    35    33    22   ar
    36     6     1    1
    37    32    26   ar
    38    15    10   ar
    39    35    31    1
    40    19    12    1
    41    36    37    1
    42     7     8    1
@<TRIPOS>MOLECULE
*****
 37 42 0 0 0
SMALL
GASTEIGER

@<TRIPOS>ATOM
      1 N         139.4021  139.0427  162.4917 N.3     1  UNL1       -0.2703
      2 C         140.3824  138.9446  161.3607 C.3     1  UNL1        0.0736
      3 C         140.1706  139.7495  160.1128 C.3     1  UNL1        0.0331
      4 C         138.9786  140.6526  159.9959 C.3     1  UNL1        0.0570
      5 C         137.9983  140.7507  161.1270 C.3     1  UNL1        0.0331
      6 C         138.2100  139.9458  162.3749 C.3     1  UNL1        0.0736
      7 N         138.7670  141.4576  158.7480 N.3     1  UNL1       -0.2934
      8 H         137.7640  141.4548  158.5624 H       1  UNL1        0.1236
      9 C         139.2135  142.8885  158.6937 C.3     1  UNL1        0.1152
     10 C         139.8950  143.5069  159.8782 C.ar    1  UNL1        0.0782
     11 C         141.3749  143.3441  160.0613 C.ar    1  UNL1        0.0562
     12 C         142.0564  143.9625  161.2458 C.ar    1  UNL1        0.1752
     13 C         141.2582  144.7437  162.2472 C.ar    1  UNL1        0.1914
     14 C         139.7783  144.9064  162.0640 C.ar    1  UNL1        0.1384
     15 N         139.0968  144.2880  160.8795 N.ar    1  UNL1       -0.2434
     16 O         141.9398  145.3621  163.4317 O.3     1  UNL1       -0.4668
     17 C         143.4196  145.1993  163.6149 C.3     1  UNL1        0.2527
     18 C         144.2179  144.4182  162.6136 C.3     1  UNL1        0.2526
     19 O         143.5364  143.7998  161.4291 O.3     1  UNL1       -0.4683
     20 C         139.6137  138.2378  163.7396 C.3     1  UNL1        0.1056
     21 O         143.7142  141.4895  164.4693 O.2     1  UNL1       -0.2645
     22 C         142.7636  141.3433  165.6204 C.ar    1  UNL1        0.2886
     23 C         143.0045  142.1002  166.8928 C.ar    1  UNL1        0.1974
     24 F         144.1961  143.0034  167.0141 F       1  UNL1       -0.1991
     25 C         142.0539  141.9541  168.0439 C.ar    1  UNL1        0.0551
     26 C         140.8624  141.0510  167.9226 C.ar    1  UNL1        0.0994
     27 N         139.9118  140.9048  169.0736 N.ar    1  UNL1       -0.2400
     28 C         138.7203  140.0017  168.9523 C.ar    1  UNL1        0.1282
     29 C         138.4794  139.2448  167.6799 C.ar    1  UNL1        0.1589
     30 F         137.2879  138.3417  167.5586 F       1  UNL1       -0.2027
     31 C         139.4300  139.3909  166.5288 C.ar    1  UNL1        0.0512
     32 C         140.6215  140.2940  166.6502 C.ar    1  UNL1        0.0808
     33 N         141.5721  140.4402  165.4990 N.ar    1  UNL1       -0.2896
     34 C         140.9608  139.5331  164.4726 C.3     1  UNL1        0.1416
     35 C         139.7241  138.9273  165.0672 C.3     1  UNL1        0.1459
     36 O         138.4642  138.1774  165.3842 O.3     1  UNL1       -0.3793
     37 H         138.2058  137.6411  164.6183 H       1  UNL1        0.2108
@<TRIPOS>BOND
     1    21    22    2
     2    22    23   ar
     3    23    24    1
     4    23    25   ar
     5    25    26   ar
     6    26    27   ar
     7    27    28   ar
     8    28    29   ar
     9    29    30    1
    10    29    31   ar
    11    31    32   ar
    12    32    33   ar
    13    33    34    1
    14    34    35    1
    15    35    36    1
    16    35    20    1
    17    20     1    1
    18     1     2    1
    19     2     3    1
    20     3     4    1
    21     4     7    1
    22     7     9    1
    23     9    10    1
    24    10    11   ar
    25    11    12   ar
    26    12    13   ar
    27    13    14   ar
    28    14    15   ar
    29    13    16    1
    30    16    17    1
    31    17    18    1
    32    18    19    1
    33     4     5    1
    34     5     6    1
    35    33    22   ar
    36     6     1    1
    37    32    26   ar
    38    15    10   ar
    39    35    31    1
    40    19    12    1
    41    36    37    1
    42     7     8    1
@<TRIPOS>MOLECULE
*****
 37 42 0 0 0
SMALL
GASTEIGER

@<TRIPOS>ATOM
      1 N         139.5742  144.5121  162.3962 N.3     1  UNL1       -0.2703
      2 C         138.7109  143.5221  161.6720 C.3     1  UNL1        0.0736
      3 C         138.0137  142.4353  162.4354 C.3     1  UNL1        0.0331
      4 C         138.1798  142.3385  163.9230 C.3     1  UNL1        0.0570
      5 C         139.0431  143.3286  164.6473 C.3     1  UNL1        0.0331
      6 C         139.7403  144.4153  163.8838 C.3     1  UNL1        0.0736
      7 N         137.4825  141.2517  164.6865 N.3     1  UNL1       -0.2934
      8 H         136.6763  140.9706  164.1285 H       1  UNL1        0.1236
      9 C         138.2198  139.9957  165.0455 C.3     1  UNL1        0.1152
     10 C         139.1962  139.3964  164.0773 C.ar    1  UNL1        0.0782
     11 C         140.6630  139.6746  164.2225 C.ar    1  UNL1        0.0562
     12 C         141.6394  139.0753  163.2542 C.ar    1  UNL1        0.1752
     13 C         141.1490  138.1978  162.1409 C.ar    1  UNL1        0.1914
     14 C         139.6821  137.9196  161.9958 C.ar    1  UNL1        0.1384
     15 N         138.7057  138.5190  162.9640 N.ar    1  UNL1       -0.2434
     16 O         142.1254  137.5984  161.1726 O.3     1  UNL1       -0.4668
     17 C         143.5922  137.8766  161.3177 C.3     1  UNL1        0.2527
     18 C         144.0826  138.7541  162.4311 C.3     1  UNL1        0.2526
     19 O         143.1063  139.3534  163.3993 O.3     1  UNL1       -0.4683
     20 C         140.2714  145.5988  161.6328 C.3     1  UNL1        0.1056
     21 O         144.0274  141.9838  160.7701 O.2     1  UNL1       -0.2645
     22 C         143.4826  142.6839  159.5605 C.ar    1  UNL1        0.2886
     23 C         144.0068  142.3431  158.1970 C.ar    1  UNL1        0.1974
     24 F         145.0759  141.3021  158.0432 F       1  UNL1       -0.1991
     25 C         143.4621  143.0431  156.9874 C.ar    1  UNL1        0.0551
     26 C         142.3931  144.0841  157.1413 C.ar    1  UNL1        0.0994
     27 N         141.8483  144.7841  155.9317 N.ar    1  UNL1       -0.2400
     28 C         140.7793  145.8250  156.0855 C.ar    1  UNL1        0.1282
     29 C         140.2551  146.1659  157.4490 C.ar    1  UNL1        0.1589
     30 F         139.1860  147.2069  157.6028 F       1  UNL1       -0.2027
     31 C         140.7998  145.4659  158.6586 C.ar    1  UNL1        0.0512
     32 C         141.8688  144.4250  158.5047 C.ar    1  UNL1        0.0808
     33 N         142.4136  143.7248  159.7143 N.ar    1  UNL1       -0.2896
     34 C         141.6272  144.3596  160.8227 C.3     1  UNL1        0.1416
     35 C         140.6954  145.3648  160.2132 C.3     1  UNL1        0.1459
     36 O         139.6750  146.4190  159.9004 O.3     1  UNL1       -0.3793
     37 H         139.2606  146.7220  160.7234 H       1  UNL1        0.2108
@<TRIPOS>BOND
     1    21    22    2
     2    22    23   ar
     3    23    24    1
     4    23    25   ar
     5    25    26   ar
     6    26    27   ar
     7    27    28   ar
     8    28    29   ar
     9    29    30    1
    10    29    31   ar
    11    31    32   ar
    12    32    33   ar
    13    33    34    1
    14    34    35    1
    15    35    36    1
    16    35    20    1
    17    20     1    1
    18     1     2    1
    19     2     3    1
    20     3     4    1
    21     4     7    1
    22     7     9    1
    23     9    10    1
    24    10    11   ar
    25    11    12   ar
    26    12    13   ar
    27    13    14   ar
    28    14    15   ar
    29    13    16    1
    30    16    17    1
    31    17    18    1
    32    18    19    1
    33     4     5    1
    34     5     6    1
    35    33    22   ar
    36     6     1    1
    37    32    26   ar
    38    15    10   ar
    39    35    31    1
    40    19    12    1
    41    36    37    1
    42     7     8    1
