@<TRIPOS>MOLECULE
*****
 24 27 0 0 0
SMALL
GASTEIGER

@<TRIPOS>ATOM
      1 C         139.5300  139.2827  166.2847 C.ar    1  UNL1        0.0688
      2 C         138.9402  139.5604  167.6356 C.ar    1  UNL1        0.0158
      3 C         139.6401  140.4890  168.5830 C.ar    1  UNL1       -0.0029
      4 C         140.9298  141.1400  168.1795 C.ar    1  UNL1       -0.0214
      5 C         141.5196  140.8623  166.8286 C.ar    1  UNL1       -0.0029
      6 C         140.8197  139.9336  165.8812 C.ar    1  UNL1        0.0158
      7 C         141.6297  142.0687  169.1270 C.3     1  UNL1        0.0347
      8 C         142.8671  141.2345  169.2788 C.3     1  UNL1        0.0726
      9 N         143.7951  141.9482  170.2166 N.3     1  UNL1       -0.2972
     10 C         143.1313  143.2235  170.6444 C.3     1  UNL1        0.0689
     11 C         141.7930  143.2980  169.9710 C.3     1  UNL1        0.0211
     12 C         140.5387  143.0971  169.1733 C.3     1  UNL1        0.0072
     13 H         144.6733  142.1574  169.7420 H       1  UNL1        0.1233
     14 C         138.0993  137.1550  165.8649 C.3     1  UNL1        0.1392
     15 N         138.8301  138.3539  165.3372 N.pl3   1  UNL1       -0.1888
     16 S         138.8610  138.6242  163.8621 S.O2    1  UNL1        0.0766
     17 O         138.0239  139.8515  164.0694 O.2     1  UNL1       -0.1497
     18 O         139.6981  137.3969  163.6548 O.2     1  UNL1       -0.1497
     19 C         138.8919  138.8945  162.3870 C.ar    1  UNL1        0.1254
     20 C         137.7899  139.6848  161.7460 C.ar    1  UNL1        0.0202
     21 C         137.8208  139.9551  160.2709 C.ar    1  UNL1        0.0014
     22 C         138.9538  139.4350  159.4367 C.ar    1  UNL1        0.0001
     23 C         140.0560  138.6447  160.0777 C.ar    1  UNL1        0.0014
     24 C         140.0250  138.3744  161.5528 C.ar    1  UNL1        0.0202
@<TRIPOS>BOND
     1    14    15    1
     2    15     1    1
     3     1     2   ar
     4     2     3   ar
     5     3     4   ar
     6     7     4    1
     7     7     8    1
     8     8     9    1
     9     9    10    1
    10    11    10    1
    11    11    12    1
    12     4     5   ar
    13     5     6   ar
    14    15    16    1
    15    16    17    2
    16    16    18    2
    17    16    19    1
    18    19    20   ar
    19    20    21   ar
    20    21    22   ar
    21    22    23   ar
    22    23    24   ar
    23     6     1   ar
    24    24    19   ar
    25    11     7    1
    26    12     7    1
    27     9    13    1
@<TRIPOS>MOLECULE
*****
 24 27 0 0 0
SMALL
GASTEIGER

@<TRIPOS>ATOM
      1 C         139.1670  142.2068  165.1609 C.ar    1  UNL1        0.0688
      2 C         138.8894  140.7538  165.4096 C.ar    1  UNL1        0.0158
      3 C         139.6664  140.0101  166.4551 C.ar    1  UNL1       -0.0029
      4 C         140.7210  140.7193  167.2518 C.ar    1  UNL1       -0.0214
      5 C         140.9986  142.1723  167.0031 C.ar    1  UNL1       -0.0029
      6 C         140.2216  142.9160  165.9576 C.ar    1  UNL1        0.0158
      7 C         141.4980  139.9755  168.2974 C.3     1  UNL1        0.0347
      8 C         140.4407  140.0471  169.3590 C.3     1  UNL1        0.0726
      9 N         140.9627  139.3508  170.5807 N.3     1  UNL1       -0.2972
     10 C         142.3426  138.8489  170.2742 C.3     1  UNL1        0.0689
     11 C         142.6735  139.2350  168.8631 C.3     1  UNL1        0.0211
     12 C         142.7178  139.7485  167.4544 C.3     1  UNL1        0.0072
     13 H         140.3545  138.5675  170.8191 H       1  UNL1        0.1233
     14 C         137.6507  144.2037  164.4802 C.3     1  UNL1        0.1392
     15 N         138.3899  142.9506  164.1153 N.pl3   1  UNL1       -0.1888
     16 S         138.3522  142.4411  162.7050 S.O2    1  UNL1        0.0766
     17 O         139.7364  142.9719  162.4762 O.2     1  UNL1       -0.1497
     18 O         136.9680  141.9104  162.9337 O.2     1  UNL1       -0.1497
     19 C         138.3145  141.9317  161.2946 C.ar    1  UNL1        0.1254
     20 C         137.8660  140.5277  161.0161 C.ar    1  UNL1        0.0202
     21 C         137.8283  140.0183  159.6057 C.ar    1  UNL1        0.0014
     22 C         138.2390  140.9129  158.4739 C.ar    1  UNL1        0.0001
     23 C         138.6875  142.3170  158.7525 C.ar    1  UNL1        0.0014
     24 C         138.7252  142.8264  160.1628 C.ar    1  UNL1        0.0202
@<TRIPOS>BOND
     1    14    15    1
     2    15     1    1
     3     1     2   ar
     4     2     3   ar
     5     3     4   ar
     6     7     4    1
     7     7     8    1
     8     8     9    1
     9     9    10    1
    10    11    10    1
    11    11    12    1
    12     4     5   ar
    13     5     6   ar
    14    15    16    1
    15    16    17    2
    16    16    18    2
    17    16    19    1
    18    19    20   ar
    19    20    21   ar
    20    21    22   ar
    21    22    23   ar
    22    23    24   ar
    23     6     1   ar
    24    24    19   ar
    25    11     7    1
    26    12     7    1
    27     9    13    1
@<TRIPOS>MOLECULE
*****
 24 27 0 0 0
SMALL
GASTEIGER

@<TRIPOS>ATOM
      1 C         140.4101  139.2384  165.8381 C.ar    1  UNL1        0.0688
      2 C         139.4126  139.9377  166.7133 C.ar    1  UNL1        0.0158
      3 C         139.8825  140.8853  167.7769 C.ar    1  UNL1       -0.0029
      4 C         141.3497  141.1336  167.9653 C.ar    1  UNL1       -0.0214
      5 C         142.3472  140.4342  167.0901 C.ar    1  UNL1       -0.0029
      6 C         141.8774  139.4867  166.0265 C.ar    1  UNL1        0.0158
      7 C         141.8195  142.0812  169.0290 C.3     1  UNL1        0.0347
      8 C         143.1493  141.4230  169.2492 C.3     1  UNL1        0.0726
      9 N         143.8765  142.1915  170.3124 N.3     1  UNL1       -0.2972
     10 C         142.9963  143.3248  170.7492 C.3     1  UNL1        0.0689
     11 C         141.7250  143.2566  169.9561 C.3     1  UNL1        0.0211
     12 C         140.5880  142.9376  169.0311 C.3     1  UNL1        0.0072
     13 H         144.7516  142.5576  169.9375 H       1  UNL1        0.1233
     14 C         138.7936  137.3636  165.0492 C.3     1  UNL1        0.1392
     15 N         139.9403  138.2908  164.7744 N.pl3   1  UNL1       -0.1888
     16 S         140.6172  138.2703  163.4360 S.O2    1  UNL1        0.0766
     17 O         140.0538  139.6265  163.1303 O.2     1  UNL1       -0.1497
     18 O         141.1806  136.9142  163.7416 O.2     1  UNL1       -0.1497
     19 C         141.2941  138.2499  162.0976 C.ar    1  UNL1        0.1254
     20 C         142.7609  137.9508  162.0034 C.ar    1  UNL1        0.0202
     21 C         143.4378  137.9304  160.6650 C.ar    1  UNL1        0.0014
     22 C         142.6479  138.2090  159.4207 C.ar    1  UNL1        0.0001
     23 C         141.1810  138.5081  159.5148 C.ar    1  UNL1        0.0014
     24 C         140.5041  138.5286  160.8532 C.ar    1  UNL1        0.0202
@<TRIPOS>BOND
     1    14    15    1
     2    15     1    1
     3     1     2   ar
     4     2     3   ar
     5     3     4   ar
     6     7     4    1
     7     7     8    1
     8     8     9    1
     9     9    10    1
    10    11    10    1
    11    11    12    1
    12     4     5   ar
    13     5     6   ar
    14    15    16    1
    15    16    17    2
    16    16    18    2
    17    16    19    1
    18    19    20   ar
    19    20    21   ar
    20    21    22   ar
    21    22    23   ar
    22    23    24   ar
    23     6     1   ar
    24    24    19   ar
    25    11     7    1
    26    12     7    1
    27     9    13    1
@<TRIPOS>MOLECULE
*****
 24 27 0 0 0
SMALL
GASTEIGER

@<TRIPOS>ATOM
      1 C         138.9895  142.2018  164.8800 C.ar    1  UNL1        0.0688
      2 C         139.8898  142.9889  165.7854 C.ar    1  UNL1        0.0158
      3 C         140.4956  142.3364  166.9926 C.ar    1  UNL1       -0.0029
      4 C         140.2012  140.8969  167.2942 C.ar    1  UNL1       -0.0214
      5 C         139.3009  140.1098  166.3888 C.ar    1  UNL1       -0.0029
      6 C         138.6951  140.7622  165.1816 C.ar    1  UNL1        0.0158
      7 C         140.8071  140.2444  168.5015 C.3     1  UNL1        0.0347
      8 C         142.0924  139.8487  167.8373 C.3     1  UNL1        0.0726
      9 N         142.9406  139.1421  168.8528 N.3     1  UNL1       -0.2972
     10 C         142.1794  139.1011  170.1446 C.3     1  UNL1        0.0689
     11 C         140.8608  139.7824  169.9275 C.3     1  UNL1        0.0211
     12 C         139.6484  140.5038  169.4181 C.3     1  UNL1        0.0072
     13 H         143.8171  139.6470  168.9834 H       1  UNL1        0.1233
     14 C         137.6774  144.1707  163.8068 C.3     1  UNL1        0.1392
     15 N         138.3836  142.8542  163.6727 N.pl3   1  UNL1       -0.1888
     16 S         138.4841  142.1901  162.3315 S.O2    1  UNL1        0.0766
     17 O         137.0654  141.7196  162.4582 O.2     1  UNL1       -0.1497
     18 O         139.9028  142.6605  162.2048 O.2     1  UNL1       -0.1497
     19 C         138.5845  141.5260  160.9903 C.ar    1  UNL1        0.1254
     20 C         138.4778  142.3448  159.7381 C.ar    1  UNL1        0.0202
     21 C         138.5783  141.6807  158.3969 C.ar    1  UNL1        0.0014
     22 C         138.7854  140.1977  158.3079 C.ar    1  UNL1        0.0001
     23 C         138.8921  139.3788  159.5601 C.ar    1  UNL1        0.0014
     24 C         138.7917  140.0429  160.9014 C.ar    1  UNL1        0.0202
@<TRIPOS>BOND
     1    14    15    1
     2    15     1    1
     3     1     2   ar
     4     2     3   ar
     5     3     4   ar
     6     7     4    1
     7     7     8    1
     8     8     9    1
     9     9    10    1
    10    11    10    1
    11    11    12    1
    12     4     5   ar
    13     5     6   ar
    14    15    16    1
    15    16    17    2
    16    16    18    2
    17    16    19    1
    18    19    20   ar
    19    20    21   ar
    20    21    22   ar
    21    22    23   ar
    22    23    24   ar
    23     6     1   ar
    24    24    19   ar
    25    11     7    1
    26    12     7    1
    27     9    13    1
@<TRIPOS>MOLECULE
*****
 24 27 0 0 0
SMALL
GASTEIGER

@<TRIPOS>ATOM
      1 C         142.7881  142.5405  164.5215 C.ar    1  UNL1        0.0688
      2 C         143.3985  141.7144  165.6146 C.ar    1  UNL1        0.0158
      3 C         142.6228  141.4386  166.8685 C.ar    1  UNL1       -0.0029
      4 C         141.2368  141.9890  167.0293 C.ar    1  UNL1       -0.0214
      5 C         140.6263  142.8151  165.9362 C.ar    1  UNL1       -0.0029
      6 C         141.4020  143.0909  164.6823 C.ar    1  UNL1        0.0158
      7 C         140.4611  141.7132  168.2833 C.3     1  UNL1        0.0347
      8 C         140.0054  140.3402  167.8869 C.3     1  UNL1        0.0726
      9 N         139.1683  139.7894  169.0031 N.3     1  UNL1       -0.2972
     10 C         139.1068  140.8220  170.0893 C.3     1  UNL1        0.0689
     11 C         139.9057  142.0110  169.6445 C.3     1  UNL1        0.0211
     12 C         140.7547  143.0285  168.9418 C.3     1  UNL1        0.0072
     13 H         139.5908  138.9335  169.3627 H       1  UNL1        0.1233
     14 C         145.0351  142.5290  163.2173 C.3     1  UNL1        0.1392
     15 N         143.5638  142.8163  163.2676 N.pl3   1  UNL1       -0.1888
     16 S         142.8680  143.3794  162.0639 S.O2    1  UNL1        0.0766
     17 O         142.3536  142.0126  161.7218 O.2     1  UNL1       -0.1497
     18 O         143.3824  144.7463  162.4060 O.2     1  UNL1       -0.1497
     19 C         142.1722  143.9425  160.8602 C.ar    1  UNL1        0.1254
     20 C         141.0335  144.9034  161.0333 C.ar    1  UNL1        0.0202
     21 C         140.3378  145.4665  159.8296 C.ar    1  UNL1        0.0014
     22 C         140.7807  145.0687  158.4529 C.ar    1  UNL1        0.0001
     23 C         141.9195  144.1078  158.2797 C.ar    1  UNL1        0.0014
     24 C         142.6153  143.5447  159.4834 C.ar    1  UNL1        0.0202
@<TRIPOS>BOND
     1    14    15    1
     2    15     1    1
     3     1     2   ar
     4     2     3   ar
     5     3     4   ar
     6     7     4    1
     7     7     8    1
     8     8     9    1
     9     9    10    1
    10    11    10    1
    11    11    12    1
    12     4     5   ar
    13     5     6   ar
    14    15    16    1
    15    16    17    2
    16    16    18    2
    17    16    19    1
    18    19    20   ar
    19    20    21   ar
    20    21    22   ar
    21    22    23   ar
    22    23    24   ar
    23     6     1   ar
    24    24    19   ar
    25    11     7    1
    26    12     7    1
    27     9    13    1
@<TRIPOS>MOLECULE
*****
 24 27 0 0 0
SMALL
GASTEIGER

@<TRIPOS>ATOM
      1 C         139.1674  141.3939  164.9815 C.ar    1  UNL1        0.0688
      2 C         139.8465  142.6339  165.4826 C.ar    1  UNL1        0.0158
      3 C         140.3707  142.6864  166.8871 C.ar    1  UNL1       -0.0029
      4 C         140.2158  141.4989  167.7903 C.ar    1  UNL1       -0.0214
      5 C         139.5367  140.2589  167.2892 C.ar    1  UNL1       -0.0029
      6 C         139.0125  140.2064  165.8847 C.ar    1  UNL1        0.0158
      7 C         140.7400  141.5515  169.1948 C.3     1  UNL1        0.0347
      8 C         141.0585  140.0893  169.2981 C.3     1  UNL1        0.0726
      9 N         141.6263  139.8339  170.6627 N.3     1  UNL1       -0.2972
     10 C         141.6588  141.1381  171.4028 C.3     1  UNL1        0.0689
     11 C         141.1110  142.1997  170.4956 C.3     1  UNL1        0.0211
     12 C         140.5311  143.0246  169.3852 C.3     1  UNL1        0.0072
     13 H         142.5714  139.4593  170.5798 H       1  UNL1        0.1233
     14 C         137.7120  140.2400  163.1647 C.3     1  UNL1        0.1392
     15 N         138.6432  141.3413  163.5770 N.pl3   1  UNL1       -0.1888
     16 S         139.0501  142.3901  162.5848 S.O2    1  UNL1        0.0766
     17 O         140.3078  141.6264  162.2933 O.2     1  UNL1       -0.1497
     18 O         137.7925  143.1539  162.8764 O.2     1  UNL1       -0.1497
     19 C         139.4571  143.4390  161.5927 C.ar    1  UNL1        0.1254
     20 C         139.6737  144.8533  162.0428 C.ar    1  UNL1        0.0202
     21 C         140.0807  145.9021  161.0506 C.ar    1  UNL1        0.0014
     22 C         140.2710  145.5366  159.6084 C.ar    1  UNL1        0.0001
     23 C         140.0544  144.1222  159.1582 C.ar    1  UNL1        0.0014
     24 C         139.6474  143.0734  160.1504 C.ar    1  UNL1        0.0202
@<TRIPOS>BOND
     1    14    15    1
     2    15     1    1
     3     1     2   ar
     4     2     3   ar
     5     3     4   ar
     6     7     4    1
     7     7     8    1
     8     8     9    1
     9     9    10    1
    10    11    10    1
    11    11    12    1
    12     4     5   ar
    13     5     6   ar
    14    15    16    1
    15    16    17    2
    16    16    18    2
    17    16    19    1
    18    19    20   ar
    19    20    21   ar
    20    21    22   ar
    21    22    23   ar
    22    23    24   ar
    23     6     1   ar
    24    24    19   ar
    25    11     7    1
    26    12     7    1
    27     9    13    1
@<TRIPOS>MOLECULE
*****
 24 27 0 0 0
SMALL
GASTEIGER

@<TRIPOS>ATOM
      1 C         143.6072  141.4685  164.9760 C.ar    1  UNL1        0.0688
      2 C         143.0533  142.5485  165.8573 C.ar    1  UNL1        0.0158
      3 C         142.3756  142.1905  167.1466 C.ar    1  UNL1       -0.0029
      4 C         142.2518  140.7524  167.5547 C.ar    1  UNL1       -0.0214
      5 C         142.8057  139.6723  166.6735 C.ar    1  UNL1       -0.0029
      6 C         143.4834  140.0304  165.3841 C.ar    1  UNL1        0.0158
      7 C         141.5741  140.3944  168.8442 C.3     1  UNL1        0.0347
      8 C         140.1866  140.3265  168.2784 C.3     1  UNL1        0.0726
      9 N         139.2484  139.9700  169.3932 N.3     1  UNL1       -0.2972
     10 C         140.0561  139.8175  170.6479 C.3     1  UNL1        0.0689
     11 C         141.4935  140.0797  170.3086 C.3     1  UNL1        0.0211
     12 C         142.8199  140.3874  169.6795 C.3     1  UNL1        0.0072
     13 H         138.7732  139.0933  169.1787 H       1  UNL1        0.1233
     14 C         145.7105  141.4238  163.4516 C.3     1  UNL1        0.1392
     15 N         144.2849  141.8265  163.6866 N.pl3   1  UNL1       -0.1888
     16 S         143.5369  142.5872  162.6322 S.O2    1  UNL1        0.0766
     17 O         142.5376  141.4726  162.5369 O.2     1  UNL1       -0.1497
     18 O         144.5362  143.7018  162.7274 O.2     1  UNL1       -0.1497
     19 C         142.7889  143.3480  161.5778 C.ar    1  UNL1        0.1254
     20 C         143.1001  143.1231  160.1278 C.ar    1  UNL1        0.0202
     21 C         142.3521  143.8839  159.0734 C.ar    1  UNL1        0.0014
     22 C         141.2928  144.8695  159.4690 C.ar    1  UNL1        0.0001
     23 C         140.9816  145.0944  160.9191 C.ar    1  UNL1        0.0014
     24 C         141.7296  144.3336  161.9734 C.ar    1  UNL1        0.0202
@<TRIPOS>BOND
     1    14    15    1
     2    15     1    1
     3     1     2   ar
     4     2     3   ar
     5     3     4   ar
     6     7     4    1
     7     7     8    1
     8     8     9    1
     9     9    10    1
    10    11    10    1
    11    11    12    1
    12     4     5   ar
    13     5     6   ar
    14    15    16    1
    15    16    17    2
    16    16    18    2
    17    16    19    1
    18    19    20   ar
    19    20    21   ar
    20    21    22   ar
    21    22    23   ar
    22    23    24   ar
    23     6     1   ar
    24    24    19   ar
    25    11     7    1
    26    12     7    1
    27     9    13    1
@<TRIPOS>MOLECULE
*****
 24 27 0 0 0
SMALL
GASTEIGER

@<TRIPOS>ATOM
      1 C         139.3882  139.6261  164.7964 C.ar    1  UNL1        0.0688
      2 C         140.2877  140.8237  164.8767 C.ar    1  UNL1        0.0158
      3 C         140.5736  141.4592  166.2050 C.ar    1  UNL1       -0.0029
      4 C         139.9601  140.8969  167.4530 C.ar    1  UNL1       -0.0214
      5 C         139.0606  139.6993  167.3727 C.ar    1  UNL1       -0.0029
      6 C         138.7746  139.0639  166.0444 C.ar    1  UNL1        0.0158
      7 C         140.2461  141.5324  168.7814 C.3     1  UNL1        0.0347
      8 C         140.0070  140.2986  169.6002 C.3     1  UNL1        0.0726
      9 N         140.2305  140.6483  171.0416 N.3     1  UNL1       -0.2972
     10 C         140.6078  142.0982  171.1136 C.3     1  UNL1        0.0689
     11 C         140.6174  142.6447  169.7168 C.3     1  UNL1        0.0211
     12 C         140.5451  142.8991  168.2403 C.3     1  UNL1        0.0072
     13 H         140.9827  140.0754  171.4241 H       1  UNL1        0.1233
     14 C         138.9462  137.5022  163.3668 C.3     1  UNL1        0.1392
     15 N         139.1021  138.9906  163.4681 N.pl3   1  UNL1       -0.1888
     16 S         138.9720  139.8436  162.2411 S.O2    1  UNL1        0.0766
     17 O         140.3447  139.4251  161.8046 O.2     1  UNL1       -0.1497
     18 O         137.5994  140.2622  162.6776 O.2     1  UNL1       -0.1497
     19 C         138.8419  140.6966  161.0141 C.ar    1  UNL1        0.1254
     20 C         139.3223  142.1174  161.0341 C.ar    1  UNL1        0.0202
     21 C         139.1922  142.9704  159.8071 C.ar    1  UNL1        0.0014
     22 C         138.5817  142.4026  158.5602 C.ar    1  UNL1        0.0001
     23 C         138.1013  140.9817  158.5402 C.ar    1  UNL1        0.0014
     24 C         138.2314  140.1287  159.7672 C.ar    1  UNL1        0.0202
@<TRIPOS>BOND
     1    14    15    1
     2    15     1    1
     3     1     2   ar
     4     2     3   ar
     5     3     4   ar
     6     7     4    1
     7     7     8    1
     8     8     9    1
     9     9    10    1
    10    11    10    1
    11    11    12    1
    12     4     5   ar
    13     5     6   ar
    14    15    16    1
    15    16    17    2
    16    16    18    2
    17    16    19    1
    18    19    20   ar
    19    20    21   ar
    20    21    22   ar
    21    22    23   ar
    22    23    24   ar
    23     6     1   ar
    24    24    19   ar
    25    11     7    1
    26    12     7    1
    27     9    13    1
@<TRIPOS>MOLECULE
*****
 24 27 0 0 0
SMALL
GASTEIGER

@<TRIPOS>ATOM
      1 C         140.3175  139.0536  165.7584 C.ar    1  UNL1        0.0688
      2 C         141.7830  139.2747  165.9892 C.ar    1  UNL1        0.0158
      3 C         142.2439  140.0715  167.1735 C.ar    1  UNL1       -0.0029
      4 C         141.2392  140.6473  168.1270 C.ar    1  UNL1       -0.0214
      5 C         139.7737  140.4262  167.8962 C.ar    1  UNL1       -0.0029
      6 C         139.3128  139.6293  166.7119 C.ar    1  UNL1        0.0158
      7 C         141.7002  141.4442  169.3113 C.3     1  UNL1        0.0347
      8 C         140.7321  140.8465  170.2888 C.3     1  UNL1        0.0726
      9 N         140.9704  141.4835  171.6257 N.3     1  UNL1       -0.2972
     10 C         142.0858  142.4749  171.4745 C.3     1  UNL1        0.0689
     11 C         142.5369  142.4506  170.0441 C.3     1  UNL1        0.0211
     12 C         142.7646  142.2085  168.5815 C.3     1  UNL1        0.0072
     13 H         141.2309  140.7707  172.3073 H       1  UNL1        0.1233
     14 C         138.5965  137.4474  164.6591 C.3     1  UNL1        0.1392
     15 N         139.8566  138.2567  164.5741 N.pl3   1  UNL1       -0.1888
     16 S         140.6557  138.2692  163.3047 S.O2    1  UNL1        0.0766
     17 O         141.1391  136.8793  163.5954 O.2     1  UNL1       -0.1497
     18 O         140.1724  139.6591  163.0141 O.2     1  UNL1       -0.1497
     19 C         141.4549  138.2817  162.0354 C.ar    1  UNL1        0.1254
     20 C         140.7695  138.5037  160.7198 C.ar    1  UNL1        0.0202
     21 C         141.5687  138.5162  159.4505 C.ar    1  UNL1        0.0014
     22 C         143.0532  138.3067  159.4968 C.ar    1  UNL1        0.0001
     23 C         143.7387  138.0846  160.8124 C.ar    1  UNL1        0.0014
     24 C         142.9395  138.0721  162.0818 C.ar    1  UNL1        0.0202
@<TRIPOS>BOND
     1    14    15    1
     2    15     1    1
     3     1     2   ar
     4     2     3   ar
     5     3     4   ar
     6     7     4    1
     7     7     8    1
     8     8     9    1
     9     9    10    1
    10    11    10    1
    11    11    12    1
    12     4     5   ar
    13     5     6   ar
    14    15    16    1
    15    16    17    2
    16    16    18    2
    17    16    19    1
    18    19    20   ar
    19    20    21   ar
    20    21    22   ar
    21    22    23   ar
    22    23    24   ar
    23     6     1   ar
    24    24    19   ar
    25    11     7    1
    26    12     7    1
    27     9    13    1
