@<TRIPOS>MOLECULE
*****
 29 33 0 0 0
SMALL
GASTEIGER

@<TRIPOS>ATOM
      1 O         141.1476  145.5425  162.5397 O.2     1  UNL1       -0.2649
      2 C         140.6935  144.3524  161.7475 C.ar    1  UNL1        0.2837
      3 C         140.4385  144.4844  160.2752 C.ar    1  UNL1        0.1392
      4 C         140.5481  145.6506  159.3382 C.ar    1  UNL1        0.0256
      5 C         140.1618  145.1812  157.9669 C.ar    1  UNL1        0.0208
      6 C         139.8133  143.7250  158.0564 C.ar    1  UNL1        0.1006
      7 N         139.9843  143.2943  159.4831 N.ar    1  UNL1       -0.2221
      8 N         139.7852  141.9723  160.1632 N.ar    1  UNL1       -0.1435
      9 C         140.0402  141.8403  161.6354 C.ar    1  UNL1        0.2064
     10 N         140.4943  143.0303  162.4275 N.ar    1  UNL1       -0.2526
     11 C         140.1295  146.0207  156.7242 C.ar    1  UNL1        0.0016
     12 C         141.0006  145.6650  155.5561 C.ar    1  UNL1        0.0009
     13 C         140.9682  146.5046  154.3134 C.ar    1  UNL1        0.0114
     14 C         140.0649  147.6997  154.2389 C.ar    1  UNL1        0.0577
     15 CL        140.0326  148.5392  152.9962 Cl      1  UNL1       -0.0822
     16 C         139.1938  148.0554  155.4071 C.ar    1  UNL1        0.0114
     17 C         139.2261  147.2158  156.6498 C.ar    1  UNL1        0.0009
     18 C         140.7494  142.8983  163.8999 C.ar    1  UNL1        0.0876
     19 C         139.6876  143.2927  164.8833 C.ar    1  UNL1        0.0221
     20 C         139.9426  143.1607  166.3555 C.ar    1  UNL1        0.0358
     21 C         141.2593  142.6343  166.8444 C.ar    1  UNL1        0.1319
     22 N         142.3211  142.2399  165.8610 N.ar    1  UNL1       -0.2276
     23 C         142.0661  142.3719  164.3887 C.ar    1  UNL1        0.1179
     24 N         141.5144  142.5023  168.3166 N.pl3   1  UNL1       -0.2882
     25 C         142.6940  142.1144  169.1581 C.3     1  UNL1        0.1231
     26 C         141.8753  142.3156  170.3987 C.3     1  UNL1        0.1499
     27 O         142.1304  142.1835  171.8709 O.3     1  UNL1       -0.3810
     28 C         140.6957  142.7034  169.5572 C.3     1  UNL1        0.1231
     29 H         141.3238  142.4090  172.3603 H       1  UNL1        0.2105
@<TRIPOS>BOND
     1     1     2    2
     2     2     3   ar
     3     3     4   ar
     4     4     5   ar
     5     5    11    1
     6    11    12   ar
     7    12    13   ar
     8    13    14   ar
     9    14    15    1
    10    14    16   ar
    11    16    17   ar
    12     5     6   ar
    13     6     7   ar
    14     7     8   ar
    15     8     9   ar
    16     9    10   ar
    17    10    18    1
    18    18    19   ar
    19    19    20   ar
    20    20    21   ar
    21    21    24    1
    22    24    25    1
    23    25    26    1
    24    26    27    1
    25    26    28    1
    26    21    22   ar
    27    22    23   ar
    28    10     2   ar
    29    23    18   ar
    30     7     3   ar
    31    28    24    1
    32    17    11   ar
    33    27    29    1
@<TRIPOS>MOLECULE
*****
 29 33 0 0 0
SMALL
GASTEIGER

@<TRIPOS>ATOM
      1 O         138.4774  142.3888  162.7277 O.2     1  UNL1       -0.2649
      2 C         138.7521  141.1107  161.9920 C.ar    1  UNL1        0.2837
      3 C         138.5346  141.0369  160.5097 C.ar    1  UNL1        0.1392
      4 C         138.0600  142.0525  159.5131 C.ar    1  UNL1        0.0256
      5 C         138.0414  141.4021  158.1616 C.ar    1  UNL1        0.0208
      6 C         138.5044  139.9845  158.3229 C.ar    1  UNL1        0.1006
      7 N         138.8092  139.7588  159.7741 N.ar    1  UNL1       -0.2221
      8 N         139.3013  138.5545  160.5208 N.ar    1  UNL1       -0.1435
      9 C         139.5188  138.6284  162.0031 C.ar    1  UNL1        0.2064
     10 N         139.2442  139.9064  162.7387 N.ar    1  UNL1       -0.2526
     11 C         137.6317  142.0548  156.8746 C.ar    1  UNL1        0.0016
     12 C         136.4788  141.5045  156.0885 C.ar    1  UNL1        0.0009
     13 C         136.0692  142.1573  154.8015 C.ar    1  UNL1        0.0114
     14 C         136.8123  143.3601  154.3007 C.ar    1  UNL1        0.0577
     15 CL        136.4026  144.0128  153.0138 Cl      1  UNL1       -0.0822
     16 C         137.9652  143.9104  155.0869 C.ar    1  UNL1        0.0114
     17 C         138.3749  143.2577  156.3739 C.ar    1  UNL1        0.0009
     18 C         139.4617  139.9802  164.2211 C.ar    1  UNL1        0.0876
     19 C         138.4226  139.4418  165.1593 C.ar    1  UNL1        0.0221
     20 C         138.6401  139.5156  166.6416 C.ar    1  UNL1        0.0358
     21 C         139.8967  140.1279  167.1857 C.ar    1  UNL1        0.1319
     22 N         140.9359  140.6662  166.2474 N.ar    1  UNL1       -0.2276
     23 C         140.7184  140.5924  164.7651 C.ar    1  UNL1        0.1179
     24 N         140.1143  140.2017  168.6679 N.pl3   1  UNL1       -0.2882
     25 C         139.2867  140.6364  169.8411 C.3     1  UNL1        0.1231
     26 C         140.4219  140.3062  170.7643 C.3     1  UNL1        0.1499
     27 O         140.6394  140.3801  172.2466 O.3     1  UNL1       -0.3810
     28 C         141.2494  139.8716  169.5912 C.3     1  UNL1        0.1231
     29 H         141.5325  140.0663  172.4583 H       1  UNL1        0.2105
@<TRIPOS>BOND
     1     1     2    2
     2     2     3   ar
     3     3     4   ar
     4     4     5   ar
     5     5    11    1
     6    11    12   ar
     7    12    13   ar
     8    13    14   ar
     9    14    15    1
    10    14    16   ar
    11    16    17   ar
    12     5     6   ar
    13     6     7   ar
    14     7     8   ar
    15     8     9   ar
    16     9    10   ar
    17    10    18    1
    18    18    19   ar
    19    19    20   ar
    20    20    21   ar
    21    21    24    1
    22    24    25    1
    23    25    26    1
    24    26    27    1
    25    26    28    1
    26    21    22   ar
    27    22    23   ar
    28    10     2   ar
    29    23    18   ar
    30     7     3   ar
    31    28    24    1
    32    17    11   ar
    33    27    29    1
@<TRIPOS>MOLECULE
*****
 29 33 0 0 0
SMALL
GASTEIGER

@<TRIPOS>ATOM
      1 O         137.8278  142.1722  161.9433 O.2     1  UNL1       -0.2649
      2 C         139.2934  141.9463  161.7170 C.ar    1  UNL1        0.2837
      3 C         140.2458  141.9842  162.8752 C.ar    1  UNL1        0.1392
      4 C         140.0341  142.2197  164.3414 C.ar    1  UNL1        0.0256
      5 C         141.3687  142.1393  165.0212 C.ar    1  UNL1        0.0208
      6 C         142.4053  141.8541  163.9752 C.ar    1  UNL1        0.1006
      7 N         141.7113  141.7582  162.6489 N.ar    1  UNL1       -0.2221
      8 N         142.2244  141.4943  161.2643 N.ar    1  UNL1       -0.1435
      9 C         141.2720  141.4564  160.1061 C.ar    1  UNL1        0.2064
     10 N         139.8066  141.6823  160.3324 N.ar    1  UNL1       -0.2526
     11 C         141.6224  142.3136  166.4893 C.ar    1  UNL1        0.0016
     12 C         140.5009  142.7130  167.4019 C.ar    1  UNL1        0.0009
     13 C         140.7547  142.8872  168.8701 C.ar    1  UNL1        0.0114
     14 C         142.1297  142.6621  169.4255 C.ar    1  UNL1        0.0577
     15 CL        142.3833  142.8363  170.8937 Cl      1  UNL1       -0.0822
     16 C         143.2511  142.2626  168.5129 C.ar    1  UNL1        0.0114
     17 C         142.9974  142.0884  167.0448 C.ar    1  UNL1        0.0009
     18 C         138.8542  141.6444  159.1741 C.ar    1  UNL1        0.0876
     19 C         138.6358  142.8733  158.3422 C.ar    1  UNL1        0.0221
     20 C         137.6834  142.8354  157.1839 C.ar    1  UNL1        0.0358
     21 C         136.9494  141.5686  156.8576 C.ar    1  UNL1        0.1319
     22 N         137.1679  140.3397  157.6895 N.ar    1  UNL1       -0.2276
     23 C         138.1202  140.3776  158.8478 C.ar    1  UNL1        0.1179
     24 N         135.9971  141.5307  155.6994 N.pl3   1  UNL1       -0.2882
     25 C         135.9044  142.2361  154.3789 C.3     1  UNL1        0.1231
     26 C         134.6502  141.4770  154.0613 C.3     1  UNL1        0.1499
     27 O         133.6979  141.4390  152.9031 O.3     1  UNL1       -0.3810
     28 C         134.7429  140.7716  155.3819 C.3     1  UNL1        0.1231
     29 H         132.9919  140.7995  153.0859 H       1  UNL1        0.2105
@<TRIPOS>BOND
     1     1     2    2
     2     2     3   ar
     3     3     4   ar
     4     4     5   ar
     5     5    11    1
     6    11    12   ar
     7    12    13   ar
     8    13    14   ar
     9    14    15    1
    10    14    16   ar
    11    16    17   ar
    12     5     6   ar
    13     6     7   ar
    14     7     8   ar
    15     8     9   ar
    16     9    10   ar
    17    10    18    1
    18    18    19   ar
    19    19    20   ar
    20    20    21   ar
    21    21    24    1
    22    24    25    1
    23    25    26    1
    24    26    27    1
    25    26    28    1
    26    21    22   ar
    27    22    23   ar
    28    10     2   ar
    29    23    18   ar
    30     7     3   ar
    31    28    24    1
    32    17    11   ar
    33    27    29    1
@<TRIPOS>MOLECULE
*****
 29 33 0 0 0
SMALL
GASTEIGER

@<TRIPOS>ATOM
      1 O         140.2006  139.6846  162.5234 O.2     1  UNL1       -0.2649
      2 C         141.5195  139.2804  161.9340 C.ar    1  UNL1        0.2837
      3 C         141.5937  138.8156  160.5098 C.ar    1  UNL1        0.1392
      4 C         140.5434  138.6519  159.4515 C.ar    1  UNL1        0.0256
      5 C         141.2132  138.1467  158.2081 C.ar    1  UNL1        0.0208
      6 C         142.6774  137.9980  158.4980 C.ar    1  UNL1        0.1006
      7 N         142.9126  138.4114  159.9206 N.ar    1  UNL1       -0.2221
      8 N         144.1572  138.4721  160.7555 N.ar    1  UNL1       -0.1435
      9 C         144.0830  138.9369  162.1797 C.ar    1  UNL1        0.2064
     10 N         142.7642  139.3410  162.7690 N.ar    1  UNL1       -0.2526
     11 C         140.5375  137.8433  156.9037 C.ar    1  UNL1        0.0016
     12 C         140.9933  136.6783  156.0760 C.ar    1  UNL1        0.0009
     13 C         140.3174  136.3750  154.7717 C.ar    1  UNL1        0.0114
     14 C         139.1859  137.2366  154.2950 C.ar    1  UNL1        0.0577
     15 CL        138.5101  136.9332  152.9906 Cl      1  UNL1       -0.0822
     16 C         138.7301  138.4015  155.1227 C.ar    1  UNL1        0.0114
     17 C         139.4059  138.7049  156.4270 C.ar    1  UNL1        0.0009
     18 C         142.6900  139.8059  164.1933 C.ar    1  UNL1        0.0876
     19 C         142.7056  138.8051  165.3106 C.ar    1  UNL1        0.0221
     20 C         142.6313  139.2699  166.7348 C.ar    1  UNL1        0.0358
     21 C         142.5416  140.7354  167.0417 C.ar    1  UNL1        0.1319
     22 N         142.5260  141.7362  165.9245 N.ar    1  UNL1       -0.2276
     23 C         142.6002  141.2714  164.5002 C.ar    1  UNL1        0.1179
     24 N         142.4674  141.2003  168.4659 N.pl3   1  UNL1       -0.2882
     25 C         142.6960  140.5612  169.8036 C.3     1  UNL1        0.1231
     26 C         142.3624  141.8577  170.4801 C.3     1  UNL1        0.1499
     27 O         142.2882  142.3225  171.9043 O.3     1  UNL1       -0.3810
     28 C         142.1338  142.4968  169.1425 C.3     1  UNL1        0.1231
     29 H         142.0299  143.2572  171.9263 H       1  UNL1        0.2105
@<TRIPOS>BOND
     1     1     2    2
     2     2     3   ar
     3     3     4   ar
     4     4     5   ar
     5     5    11    1
     6    11    12   ar
     7    12    13   ar
     8    13    14   ar
     9    14    15    1
    10    14    16   ar
    11    16    17   ar
    12     5     6   ar
    13     6     7   ar
    14     7     8   ar
    15     8     9   ar
    16     9    10   ar
    17    10    18    1
    18    18    19   ar
    19    19    20   ar
    20    20    21   ar
    21    21    24    1
    22    24    25    1
    23    25    26    1
    24    26    27    1
    25    26    28    1
    26    21    22   ar
    27    22    23   ar
    28    10     2   ar
    29    23    18   ar
    30     7     3   ar
    31    28    24    1
    32    17    11   ar
    33    27    29    1
@<TRIPOS>MOLECULE
*****
 29 33 0 0 0
SMALL
GASTEIGER

@<TRIPOS>ATOM
      1 O         140.8901  137.6000  161.7277 O.2     1  UNL1       -0.2649
      2 C         140.9479  139.0832  161.5110 C.ar    1  UNL1        0.2837
      3 C         140.8196  140.0172  162.6777 C.ar    1  UNL1        0.1392
      4 C         140.6290  139.7702  164.1449 C.ar    1  UNL1        0.0256
      5 C         140.5690  141.1007  164.8349 C.ar    1  UNL1        0.0208
      6 C         140.7226  142.1700  163.7942 C.ar    1  UNL1        0.1006
      7 N         140.8774  141.5003  162.4609 N.ar    1  UNL1       -0.2221
      8 N         141.0636  142.0494  161.0775 N.ar    1  UNL1       -0.1435
      9 C         141.1919  141.1154  159.9109 C.ar    1  UNL1        0.2064
     10 N         141.1341  139.6324  160.1276 N.ar    1  UNL1       -0.2526
     11 C         140.3874  141.3229  166.3072 C.ar    1  UNL1        0.0016
     12 C         139.8518  140.2203  167.1717 C.ar    1  UNL1        0.0009
     13 C         139.6702  140.4426  168.6440 C.ar    1  UNL1        0.0114
     14 C         140.0242  141.7675  169.2518 C.ar    1  UNL1        0.0577
     15 CL        139.8426  141.9897  170.7241 Cl      1  UNL1       -0.0822
     16 C         140.5598  142.8701  168.3873 C.ar    1  UNL1        0.0114
     17 C         140.7414  142.6478  166.9150 C.ar    1  UNL1        0.0009
     18 C         141.2625  138.6983  158.9608 C.ar    1  UNL1        0.0876
     19 C         140.0651  138.3903  158.1114 C.ar    1  UNL1        0.0221
     20 C         140.1935  137.4563  156.9448 C.ar    1  UNL1        0.0358
     21 C         141.5192  136.8303  156.6275 C.ar    1  UNL1        0.1319
     22 N         142.7165  137.1383  157.4769 N.ar    1  UNL1       -0.2276
     23 C         142.5882  138.0723  158.6436 C.ar    1  UNL1        0.1179
     24 N         141.6476  135.8963  155.4609 N.pl3   1  UNL1       -0.2882
     25 C         142.0441  136.0449  154.0219 C.3     1  UNL1        0.1231
     26 C         141.8293  134.5754  153.8108 C.3     1  UNL1        0.1499
     27 O         141.9577  133.6414  152.6442 O.3     1  UNL1       -0.3810
     28 C         141.4328  134.4268  155.2499 C.3     1  UNL1        0.1231
     29 H         141.7219  132.7425  152.9222 H       1  UNL1        0.2105
@<TRIPOS>BOND
     1     1     2    2
     2     2     3   ar
     3     3     4   ar
     4     4     5   ar
     5     5    11    1
     6    11    12   ar
     7    12    13   ar
     8    13    14   ar
     9    14    15    1
    10    14    16   ar
    11    16    17   ar
    12     5     6   ar
    13     6     7   ar
    14     7     8   ar
    15     8     9   ar
    16     9    10   ar
    17    10    18    1
    18    18    19   ar
    19    19    20   ar
    20    20    21   ar
    21    21    24    1
    22    24    25    1
    23    25    26    1
    24    26    27    1
    25    26    28    1
    26    21    22   ar
    27    22    23   ar
    28    10     2   ar
    29    23    18   ar
    30     7     3   ar
    31    28    24    1
    32    17    11   ar
    33    27    29    1
@<TRIPOS>MOLECULE
*****
 29 33 0 0 0
SMALL
GASTEIGER

@<TRIPOS>ATOM
      1 O         144.7978  140.8151  162.0516 O.2     1  UNL1       -0.2649
      2 C         143.3154  140.8861  161.8334 C.ar    1  UNL1        0.2837
      3 C         142.3788  140.7593  162.9982 C.ar    1  UNL1        0.1392
      4 C         142.6224  140.5592  164.4647 C.ar    1  UNL1        0.0256
      5 C         141.2906  140.5065  165.1527 C.ar    1  UNL1        0.0208
      6 C         140.2239  140.6741  164.1115 C.ar    1  UNL1        0.1006
      7 N         140.8965  140.8303  162.7799 N.ar    1  UNL1       -0.2221
      8 N         140.3507  141.0281  161.3968 N.ar    1  UNL1       -0.1435
      9 C         141.2873  141.1549  160.2320 C.ar    1  UNL1        0.2064
     10 N         142.7695  141.0839  160.4503 N.ar    1  UNL1       -0.2526
     11 C         141.0649  140.3191  166.6238 C.ar    1  UNL1        0.0016
     12 C         142.2155  139.9698  167.5205 C.ar    1  UNL1        0.0009
     13 C         141.9898  139.7824  168.9916 C.ar    1  UNL1        0.0114
     14 C         140.6136  139.9443  169.5659 C.ar    1  UNL1        0.0577
     15 CL        140.3880  139.7569  171.0370 Cl      1  UNL1       -0.0822
     16 C         139.4630  140.2936  168.6692 C.ar    1  UNL1        0.0114
     17 C         139.6887  140.4810  167.1981 C.ar    1  UNL1        0.0009
     18 C         143.7061  141.2107  159.2854 C.ar    1  UNL1        0.0876
     19 C         144.4782  142.4800  159.0785 C.ar    1  UNL1        0.0221
     20 C         145.4147  142.6068  157.9137 C.ar    1  UNL1        0.0358
     21 C         145.5792  141.4643  156.9558 C.ar    1  UNL1        0.1319
     22 N         144.8071  140.1950  157.1626 N.ar    1  UNL1       -0.2276
     23 C         143.8706  140.0682  158.3275 C.ar    1  UNL1        0.1179
     24 N         146.5157  141.5910  155.7909 N.pl3   1  UNL1       -0.2882
     25 C         147.9630  141.9498  155.6278 C.3     1  UNL1        0.1231
     26 C         147.8403  141.7703  154.1437 C.3     1  UNL1        0.1499
     27 O         148.7768  141.8970  152.9788 O.3     1  UNL1       -0.3810
     28 C         146.3929  141.4115  154.3068 C.3     1  UNL1        0.1231
     29 H         148.3017  141.6922  152.1583 H       1  UNL1        0.2105
@<TRIPOS>BOND
     1     1     2    2
     2     2     3   ar
     3     3     4   ar
     4     4     5   ar
     5     5    11    1
     6    11    12   ar
     7    12    13   ar
     8    13    14   ar
     9    14    15    1
    10    14    16   ar
    11    16    17   ar
    12     5     6   ar
    13     6     7   ar
    14     7     8   ar
    15     8     9   ar
    16     9    10   ar
    17    10    18    1
    18    18    19   ar
    19    19    20   ar
    20    20    21   ar
    21    21    24    1
    22    24    25    1
    23    25    26    1
    24    26    27    1
    25    26    28    1
    26    21    22   ar
    27    22    23   ar
    28    10     2   ar
    29    23    18   ar
    30     7     3   ar
    31    28    24    1
    32    17    11   ar
    33    27    29    1
@<TRIPOS>MOLECULE
*****
 29 33 0 0 0
SMALL
GASTEIGER

@<TRIPOS>ATOM
      1 O         138.1151  143.1982  161.6693 O.2     1  UNL1       -0.2649
      2 C         138.9493  141.9560  161.7755 C.ar    1  UNL1        0.2837
      3 C         139.4594  141.5071  163.1127 C.ar    1  UNL1        0.1392
      4 C         139.3038  142.0800  164.4902 C.ar    1  UNL1        0.0256
      5 C         140.0418  141.1919  165.4476 C.ar    1  UNL1        0.0208
      6 C         140.6535  140.0702  164.6619 C.ar    1  UNL1        0.1006
      7 N         140.2936  140.2649  163.2188 N.ar    1  UNL1       -0.2221
      8 N         140.6176  139.4717  161.9876 N.ar    1  UNL1       -0.1435
      9 C         140.1075  139.9207  160.6504 C.ar    1  UNL1        0.2064
     10 N         139.2734  141.1628  160.5443 N.ar    1  UNL1       -0.2526
     11 C         140.1492  141.3907  166.9305 C.ar    1  UNL1        0.0016
     12 C         139.7280  140.2967  167.8663 C.ar    1  UNL1        0.0009
     13 C         139.8354  140.4955  169.3492 C.ar    1  UNL1        0.0114
     14 C         140.3640  141.7883  169.8963 C.ar    1  UNL1        0.0577
     15 CL        140.4715  141.9870  171.3792 Cl      1  UNL1       -0.0822
     16 C         140.7852  142.8823  168.9605 C.ar    1  UNL1        0.0114
     17 C         140.6778  142.6834  167.4776 C.ar    1  UNL1        0.0009
     18 C         138.7633  141.6117  159.2069 C.ar    1  UNL1        0.0876
     19 C         139.2740  142.8838  158.5979 C.ar    1  UNL1        0.0221
     20 C         138.7640  143.3327  157.2607 C.ar    1  UNL1        0.0358
     21 C         137.7431  142.5096  156.5325 C.ar    1  UNL1        0.1319
     22 N         137.2323  141.2375  157.1415 N.ar    1  UNL1       -0.2276
     23 C         137.7424  140.7886  158.4788 C.ar    1  UNL1        0.1179
     24 N         137.2329  142.9585  155.1952 N.pl3   1  UNL1       -0.2882
     25 C         136.7140  142.2648  153.9707 C.3     1  UNL1        0.1231
     26 C         136.5114  143.5932  153.3040 C.3     1  UNL1        0.1499
     27 O         136.0013  144.0420  151.9668 O.3     1  UNL1       -0.3810
     28 C         137.0304  144.2868  154.5286 C.3     1  UNL1        0.1231
     29 H         136.0278  145.0105  151.9191 H       1  UNL1        0.2105
@<TRIPOS>BOND
     1     1     2    2
     2     2     3   ar
     3     3     4   ar
     4     4     5   ar
     5     5    11    1
     6    11    12   ar
     7    12    13   ar
     8    13    14   ar
     9    14    15    1
    10    14    16   ar
    11    16    17   ar
    12     5     6   ar
    13     6     7   ar
    14     7     8   ar
    15     8     9   ar
    16     9    10   ar
    17    10    18    1
    18    18    19   ar
    19    19    20   ar
    20    20    21   ar
    21    21    24    1
    22    24    25    1
    23    25    26    1
    24    26    27    1
    25    26    28    1
    26    21    22   ar
    27    22    23   ar
    28    10     2   ar
    29    23    18   ar
    30     7     3   ar
    31    28    24    1
    32    17    11   ar
    33    27    29    1
@<TRIPOS>MOLECULE
*****
 29 33 0 0 0
SMALL
GASTEIGER

@<TRIPOS>ATOM
      1 O         139.4853  144.8226  161.3286 O.2     1  UNL1       -0.2649
      2 C         140.2434  143.5353  161.1931 C.ar    1  UNL1        0.2837
      3 C         140.3961  142.6266  162.3767 C.ar    1  UNL1        0.1392
      4 C         139.9133  142.7333  163.7928 C.ar    1  UNL1        0.0256
      5 C         140.3730  141.5120  164.5325 C.ar    1  UNL1        0.0208
      6 C         141.1399  140.6505  163.5735 C.ar    1  UNL1        0.1006
      7 N         141.1542  141.3394  162.2411 N.ar    1  UNL1       -0.2221
      8 N         141.7596  140.9609  160.9219 N.ar    1  UNL1       -0.1435
      9 C         141.6069  141.8696  159.7384 C.ar    1  UNL1        0.2064
     10 N         140.8489  143.1568  159.8739 N.ar    1  UNL1       -0.2526
     11 C         140.1117  141.2059  165.9775 C.ar    1  UNL1        0.0016
     12 C         140.6255  142.1269  167.0441 C.ar    1  UNL1        0.0009
     13 C         140.3641  141.8207  168.4891 C.ar    1  UNL1        0.0114
     14 C         139.5889  140.5935  168.8675 C.ar    1  UNL1        0.0577
     15 CL        139.3276  140.2874  170.3125 Cl      1  UNL1       -0.0822
     16 C         139.0751  139.6725  167.8009 C.ar    1  UNL1        0.0114
     17 C         139.3365  139.9787  166.3559 C.ar    1  UNL1        0.0009
     18 C         140.6961  144.0655  158.6902 C.ar    1  UNL1        0.0876
     19 C         141.6845  145.1702  158.4604 C.ar    1  UNL1        0.0221
     20 C         141.5318  146.0790  157.2768 C.ar    1  UNL1        0.0358
     21 C         140.3908  145.8830  156.3231 C.ar    1  UNL1        0.1319
     22 N         139.4024  144.7783  156.5529 N.ar    1  UNL1       -0.2276
     23 C         139.5551  143.8695  157.7365 C.ar    1  UNL1        0.1179
     24 N         140.2380  146.7916  155.1395 N.pl3   1  UNL1       -0.2882
     25 C         139.5276  148.0873  154.8817 C.3     1  UNL1        0.1231
     26 C         140.0218  148.0768  153.4656 C.3     1  UNL1        0.1499
     27 O         139.8691  148.9854  152.2820 O.3     1  UNL1       -0.3810
     28 C         140.7323  146.7810  153.7233 C.3     1  UNL1        0.1231
     29 H         140.3555  148.6181  151.5274 H       1  UNL1        0.2105
@<TRIPOS>BOND
     1     1     2    2
     2     2     3   ar
     3     3     4   ar
     4     4     5   ar
     5     5    11    1
     6    11    12   ar
     7    12    13   ar
     8    13    14   ar
     9    14    15    1
    10    14    16   ar
    11    16    17   ar
    12     5     6   ar
    13     6     7   ar
    14     7     8   ar
    15     8     9   ar
    16     9    10   ar
    17    10    18    1
    18    18    19   ar
    19    19    20   ar
    20    20    21   ar
    21    21    24    1
    22    24    25    1
    23    25    26    1
    24    26    27    1
    25    26    28    1
    26    21    22   ar
    27    22    23   ar
    28    10     2   ar
    29    23    18   ar
    30     7     3   ar
    31    28    24    1
    32    17    11   ar
    33    27    29    1
@<TRIPOS>MOLECULE
*****
 29 33 0 0 0
SMALL
GASTEIGER

@<TRIPOS>ATOM
      1 O         144.0879  142.8585  162.9346 O.2     1  UNL1       -0.2649
      2 C         143.1131  142.1093  162.0753 C.ar    1  UNL1        0.2837
      3 C         143.3529  141.9881  160.5996 C.ar    1  UNL1        0.1392
      4 C         144.4528  142.4979  159.7163 C.ar    1  UNL1        0.0256
      5 C         144.1577  142.0637  158.3112 C.ar    1  UNL1        0.0208
      6 C         142.8754  141.2856  158.3260 C.ar    1  UNL1        0.1006
      7 N         142.3780  141.2388  159.7404 N.ar    1  UNL1       -0.2221
      8 N         141.1633  140.6108  160.3569 N.ar    1  UNL1       -0.1435
      9 C         140.9235  140.7321  161.8326 C.ar    1  UNL1        0.2064
     10 N         141.8983  141.4812  162.6918 N.ar    1  UNL1       -0.2526
     11 C         144.9975  142.3563  157.1032 C.ar    1  UNL1        0.0016
     12 C         144.3443  142.5761  155.7710 C.ar    1  UNL1        0.0009
     13 C         145.1841  142.8686  154.5630 C.ar    1  UNL1        0.0114
     14 C         146.6772  142.9415  154.6873 C.ar    1  UNL1        0.0577
     15 CL        147.5170  143.2341  153.4794 Cl      1  UNL1       -0.0822
     16 C         147.3304  142.7218  156.0196 C.ar    1  UNL1        0.0114
     17 C         146.4906  142.4292  157.2275 C.ar    1  UNL1        0.0009
     18 C         141.6584  141.6025  164.1676 C.ar    1  UNL1        0.0876
     19 C         140.8494  142.7458  164.7045 C.ar    1  UNL1        0.0221
     20 C         140.6095  142.8670  166.1802 C.ar    1  UNL1        0.0358
     21 C         141.1787  141.8449  167.1190 C.ar    1  UNL1        0.1319
     22 N         141.9877  140.7016  166.5821 N.ar    1  UNL1       -0.2276
     23 C         142.2276  140.5804  165.1064 C.ar    1  UNL1        0.1179
     24 N         140.9389  141.9661  168.5947 N.pl3   1  UNL1       -0.2882
     25 C         140.4638  143.0588  169.5059 C.3     1  UNL1        0.1231
     26 C         140.5997  142.1375  170.6818 C.3     1  UNL1        0.1499
     27 O         140.3600  142.2587  172.1575 O.3     1  UNL1       -0.3810
     28 C         141.0748  141.0448  169.7706 C.3     1  UNL1        0.1231
     29 H         140.5717  141.4165  172.5897 H       1  UNL1        0.2105
@<TRIPOS>BOND
     1     1     2    2
     2     2     3   ar
     3     3     4   ar
     4     4     5   ar
     5     5    11    1
     6    11    12   ar
     7    12    13   ar
     8    13    14   ar
     9    14    15    1
    10    14    16   ar
    11    16    17   ar
    12     5     6   ar
    13     6     7   ar
    14     7     8   ar
    15     8     9   ar
    16     9    10   ar
    17    10    18    1
    18    18    19   ar
    19    19    20   ar
    20    20    21   ar
    21    21    24    1
    22    24    25    1
    23    25    26    1
    24    26    27    1
    25    26    28    1
    26    21    22   ar
    27    22    23   ar
    28    10     2   ar
    29    23    18   ar
    30     7     3   ar
    31    28    24    1
    32    17    11   ar
    33    27    29    1
