@<TRIPOS>MOLECULE
*****
 31 34 0 0 0
SMALL
GASTEIGER

@<TRIPOS>ATOM
      1 C         139.2385  140.4470  164.8905 C.3     1  UNL1        0.2023
      2 O         139.3464  141.4000  163.7373 O.3     1  UNL1       -0.3495
      3 C         140.1062  142.6839  163.8939 C.3     1  UNL1        0.1145
      4 C         140.8660  143.9677  164.0505 C.3     1  UNL1        0.0463
      5 C         140.9740  144.9207  162.8972 C.3     1  UNL1        0.0746
      6 N         140.3222  144.5899  161.5874 N.3     1  UNL1       -0.2722
      7 C         139.5624  143.3061  161.4308 C.3     1  UNL1        0.0746
      8 C         139.4544  142.3531  162.5840 C.3     1  UNL1        0.0463
      9 C         140.7580  143.0146  165.2037 C.3     1  UNL1        0.1254
     10 N         140.6500  142.0615  166.3570 N.am    1  UNL1       -0.2543
     11 C         139.8903  140.7777  166.2004 C.2     1  UNL1        0.2572
     12 O         139.7823  139.8246  167.3537 O.2     1  UNL1       -0.2719
     13 C         141.3018  142.3923  167.6669 C.ar    1  UNL1        0.0540
     14 C         140.5236  143.1046  168.7332 C.ar    1  UNL1        0.0149
     15 C         141.1754  143.4353  170.0430 C.ar    1  UNL1        0.0013
     16 C         142.6054  143.0538  170.2866 C.ar    1  UNL1        0.0001
     17 C         143.3838  142.3415  169.2203 C.ar    1  UNL1        0.0013
     18 C         142.7320  142.0108  167.9105 C.ar    1  UNL1        0.0149
     19 C         138.4787  139.1631  164.7340 C.3     1  UNL1        0.1484
     20 C         139.1476  137.9649  164.1282 C.2     1  UNL1        0.3201
     21 O         140.2231  137.2436  164.8853 O.2     1  UNL1       -0.2500
     22 C         138.9791  138.3556  161.5652 C.3     1  UNL1        0.2556
     23 O         138.7410  137.4879  162.7655 O.3     1  UNL1       -0.4443
     24 C         140.4301  145.5430  160.4341 C.3     1  UNL1        0.0768
     25 C         141.0148  145.0817  159.1321 C.3     1  UNL1        0.0437
     26 C         140.1896  145.1299  157.8803 C.ar    1  UNL1       -0.0208
     27 C         140.0224  146.4246  157.1416 C.ar    1  UNL1       -0.0042
     28 C         139.1973  146.4727  155.8900 C.ar    1  UNL1       -0.0003
     29 C         138.5392  145.2261  155.3770 C.ar    1  UNL1       -0.0000
     30 C         138.7064  143.9314  156.1158 C.ar    1  UNL1       -0.0003
     31 C         139.5316  143.8833  157.3674 C.ar    1  UNL1       -0.0042
@<TRIPOS>BOND
     1    22    23    1
     2    23    20    1
     3    20    21    2
     4    20    19    1
     5    19     1    1
     6     1     2    1
     7     2     3    1
     8     3     4    1
     9     4     5    1
    10     5     6    1
    11     6    24    1
    12    24    25    1
    13    25    26    1
    14    26    27   ar
    15    27    28   ar
    16    28    29   ar
    17    29    30   ar
    18    30    31   ar
    19     6     7    1
    20     7     8    1
    21     3     9    1
    22     9    10    1
    23    10    13    1
    24    13    14   ar
    25    14    15   ar
    26    15    16   ar
    27    16    17   ar
    28    17    18   ar
    29    10    11   am
    30    11    12    2
    31    11     1    1
    32     8     3    1
    33    18    13   ar
    34    31    26   ar
@<TRIPOS>MOLECULE
*****
 31 34 0 0 0
SMALL
GASTEIGER

@<TRIPOS>ATOM
      1 C         143.1383  143.2591  160.5688 C.3     1  UNL1        0.2023
      2 O         142.8437  143.9380  159.2641 O.3     1  UNL1       -0.3495
      3 C         141.5378  144.6494  159.0668 C.3     1  UNL1        0.1145
      4 C         140.2321  145.3606  158.8696 C.3     1  UNL1        0.0463
      5 C         139.9375  146.0396  157.5649 C.3     1  UNL1        0.0746
      6 N         140.9487  146.0073  156.4575 N.3     1  UNL1       -0.2722
      7 C         142.2545  145.2960  156.6547 C.3     1  UNL1        0.0746
      8 C         142.5491  144.6171  157.9594 C.3     1  UNL1        0.0463
      9 C         140.5266  144.6816  160.1742 C.3     1  UNL1        0.1254
     10 N         140.8212  144.0026  161.4789 N.am    1  UNL1       -0.2543
     11 C         142.1270  143.2914  161.6762 C.2     1  UNL1        0.2572
     12 O         142.4216  142.6123  162.9809 O.2     1  UNL1       -0.2719
     13 C         139.8100  144.0349  162.5864 C.ar    1  UNL1        0.0540
     14 C         140.0642  144.8641  163.8102 C.ar    1  UNL1        0.0149
     15 C         139.0530  144.8964  164.9176 C.ar    1  UNL1        0.0013
     16 C         137.7875  144.0995  164.8012 C.ar    1  UNL1        0.0001
     17 C         137.5333  143.2703  163.5773 C.ar    1  UNL1        0.0013
     18 C         138.5445  143.2380  162.4699 C.ar    1  UNL1        0.0149
     19 C         144.4441  142.5477  160.7661 C.3     1  UNL1        0.1484
     20 C         144.4584  141.1193  161.2237 C.2     1  UNL1        0.3201
     21 O         145.1761  140.7434  162.4861 O.2     1  UNL1       -0.2500
     22 C         142.4494  139.5045  160.8978 C.3     1  UNL1        0.2556
     23 O         143.7550  140.0669  160.4190 O.3     1  UNL1       -0.4443
     24 C         140.6541  146.6863  155.1528 C.3     1  UNL1        0.0768
     25 C         139.3227  147.3409  154.9318 C.3     1  UNL1        0.0437
     26 C         139.2407  148.8252  154.7311 C.ar    1  UNL1       -0.0208
     27 C         138.5838  149.6871  155.7681 C.ar    1  UNL1       -0.0042
     28 C         138.5019  151.1713  155.5673 C.ar    1  UNL1       -0.0003
     29 C         139.0768  151.7936  154.3295 C.ar    1  UNL1       -0.0000
     30 C         139.7337  150.9316  153.2924 C.ar    1  UNL1       -0.0003
     31 C         139.8157  149.4474  153.4932 C.ar    1  UNL1       -0.0042
@<TRIPOS>BOND
     1    22    23    1
     2    23    20    1
     3    20    21    2
     4    20    19    1
     5    19     1    1
     6     1     2    1
     7     2     3    1
     8     3     4    1
     9     4     5    1
    10     5     6    1
    11     6    24    1
    12    24    25    1
    13    25    26    1
    14    26    27   ar
    15    27    28   ar
    16    28    29   ar
    17    29    30   ar
    18    30    31   ar
    19     6     7    1
    20     7     8    1
    21     3     9    1
    22     9    10    1
    23    10    13    1
    24    13    14   ar
    25    14    15   ar
    26    15    16   ar
    27    16    17   ar
    28    17    18   ar
    29    10    11   am
    30    11    12    2
    31    11     1    1
    32     8     3    1
    33    18    13   ar
    34    31    26   ar
@<TRIPOS>MOLECULE
*****
 31 34 0 0 0
SMALL
GASTEIGER

@<TRIPOS>ATOM
      1 C         141.9986  143.8979  160.2498 C.3     1  UNL1        0.2023
      2 O         142.1308  143.1736  161.5567 O.3     1  UNL1       -0.3495
      3 C         143.0793  142.0181  161.6812 C.3     1  UNL1        0.1145
      4 C         144.0277  140.8628  161.8057 C.3     1  UNL1        0.0463
      5 C         144.1599  140.1385  163.1125 C.3     1  UNL1        0.0746
      6 N         143.3437  140.5696  164.2949 N.3     1  UNL1       -0.2722
      7 C         142.3952  141.7249  164.1704 C.3     1  UNL1        0.0746
      8 C         142.2630  142.4492  162.8636 C.3     1  UNL1        0.0463
      9 C         143.8955  141.5870  160.4989 C.3     1  UNL1        0.1254
     10 N         143.7632  142.3114  159.1920 N.am    1  UNL1       -0.2543
     11 C         142.8148  143.4668  159.0675 C.2     1  UNL1        0.2572
     12 O         142.6826  144.1911  157.7606 O.2     1  UNL1       -0.2719
     13 C         144.5795  141.8803  158.0096 C.ar    1  UNL1        0.0540
     14 C         145.8623  142.5870  157.6861 C.ar    1  UNL1        0.0149
     15 C         146.6785  142.1560  156.5037 C.ar    1  UNL1        0.0013
     16 C         146.2119  141.0181  155.6449 C.ar    1  UNL1        0.0001
     17 C         144.9290  140.3114  155.9685 C.ar    1  UNL1        0.0013
     18 C         144.1127  140.7424  157.1508 C.ar    1  UNL1        0.0149
     19 C         141.0501  145.0533  160.1253 C.3     1  UNL1        0.1484
     20 C         140.0262  145.3015  161.1930 C.2     1  UNL1        0.3201
     21 O         139.9686  146.6328  161.8819 O.2     1  UNL1       -0.2500
     22 C         138.2174  144.3626  162.8044 C.3     1  UNL1        0.2556
     23 O         139.0599  144.2186  161.5718 O.3     1  UNL1       -0.4443
     24 C         143.4759  139.8452  165.6018 C.3     1  UNL1        0.0768
     25 C         142.7322  138.5622  165.8267 C.3     1  UNL1        0.0437
     26 C         141.4502  138.2999  165.0935 C.ar    1  UNL1       -0.0208
     27 C         141.4685  137.5461  163.7968 C.ar    1  UNL1       -0.0042
     28 C         140.1865  137.2838  163.0636 C.ar    1  UNL1       -0.0003
     29 C         138.8862  137.7753  163.6270 C.ar    1  UNL1       -0.0000
     30 C         138.8678  138.5291  164.9237 C.ar    1  UNL1       -0.0003
     31 C         140.1498  138.7914  165.6569 C.ar    1  UNL1       -0.0042
@<TRIPOS>BOND
     1    22    23    1
     2    23    20    1
     3    20    21    2
     4    20    19    1
     5    19     1    1
     6     1     2    1
     7     2     3    1
     8     3     4    1
     9     4     5    1
    10     5     6    1
    11     6    24    1
    12    24    25    1
    13    25    26    1
    14    26    27   ar
    15    27    28   ar
    16    28    29   ar
    17    29    30   ar
    18    30    31   ar
    19     6     7    1
    20     7     8    1
    21     3     9    1
    22     9    10    1
    23    10    13    1
    24    13    14   ar
    25    14    15   ar
    26    15    16   ar
    27    16    17   ar
    28    17    18   ar
    29    10    11   am
    30    11    12    2
    31    11     1    1
    32     8     3    1
    33    18    13   ar
    34    31    26   ar
@<TRIPOS>MOLECULE
*****
 31 34 0 0 0
SMALL
GASTEIGER

@<TRIPOS>ATOM
      1 C         139.7156  140.2254  160.3715 C.3     1  UNL1        0.2023
      2 O         139.9326  139.2881  159.2208 O.3     1  UNL1       -0.3495
      3 C         141.2990  138.7279  158.9572 C.3     1  UNL1        0.1145
      4 C         142.6653  138.1678  158.6936 C.3     1  UNL1        0.0463
      5 C         142.8824  137.2304  157.5429 C.3     1  UNL1        0.0746
      6 N         141.7332  136.8531  156.6558 N.3     1  UNL1       -0.2722
      7 C         140.3669  137.4133  156.9193 C.3     1  UNL1        0.0746
      8 C         140.1498  138.3506  158.0700 C.3     1  UNL1        0.0463
      9 C         142.4482  139.1051  159.8443 C.3     1  UNL1        0.1254
     10 N         142.2310  140.0426  160.9951 N.am    1  UNL1       -0.2543
     11 C         140.8647  140.6027  161.2586 C.2     1  UNL1        0.2572
     12 O         140.6476  141.5401  162.4094 O.2     1  UNL1       -0.2719
     13 C         143.3802  140.4198  161.8823 C.ar    1  UNL1        0.0540
     14 C         143.7722  139.5272  163.0222 C.ar    1  UNL1        0.0149
     15 C         144.9214  139.9044  163.9093 C.ar    1  UNL1        0.0013
     16 C         145.6786  141.1743  163.6566 C.ar    1  UNL1        0.0001
     17 C         145.2866  142.0671  162.5166 C.ar    1  UNL1        0.0013
     18 C         144.1374  141.6898  161.6294 C.ar    1  UNL1        0.0149
     19 C         138.3492  140.7856  160.6351 C.3     1  UNL1        0.1484
     20 C         137.6850  140.5506  161.9593 C.2     1  UNL1        0.3201
     21 O         137.7057  139.1837  162.5767 O.2     1  UNL1       -0.2500
     22 C         137.5878  142.2450  163.9264 C.3     1  UNL1        0.2556
     23 O         137.0001  141.6825  162.6662 O.3     1  UNL1       -0.4443
     24 C         141.9503  135.9157  155.5050 C.3     1  UNL1        0.0768
     25 C         141.7281  134.4433  155.6850 C.3     1  UNL1        0.0437
     26 C         142.8666  133.5578  156.0971 C.ar    1  UNL1       -0.0208
     27 C         143.3428  132.4718  155.1785 C.ar    1  UNL1       -0.0042
     28 C         144.4812  131.5864  155.5906 C.ar    1  UNL1       -0.0003
     29 C         145.1435  131.7870  156.9215 C.ar    1  UNL1       -0.0000
     30 C         144.6674  132.8729  157.8401 C.ar    1  UNL1       -0.0003
     31 C         143.5289  133.7583  157.4280 C.ar    1  UNL1       -0.0042
@<TRIPOS>BOND
     1    22    23    1
     2    23    20    1
     3    20    21    2
     4    20    19    1
     5    19     1    1
     6     1     2    1
     7     2     3    1
     8     3     4    1
     9     4     5    1
    10     5     6    1
    11     6    24    1
    12    24    25    1
    13    25    26    1
    14    26    27   ar
    15    27    28   ar
    16    28    29   ar
    17    29    30   ar
    18    30    31   ar
    19     6     7    1
    20     7     8    1
    21     3     9    1
    22     9    10    1
    23    10    13    1
    24    13    14   ar
    25    14    15   ar
    26    15    16   ar
    27    16    17   ar
    28    17    18   ar
    29    10    11   am
    30    11    12    2
    31    11     1    1
    32     8     3    1
    33    18    13   ar
    34    31    26   ar
@<TRIPOS>MOLECULE
*****
 31 34 0 0 0
SMALL
GASTEIGER

@<TRIPOS>ATOM
      1 C         138.9475  140.6467  165.3667 C.3     1  UNL1        0.2023
      2 O         139.1127  141.5202  164.1585 O.3     1  UNL1       -0.3495
      3 C         140.0306  142.7056  164.2099 C.3     1  UNL1        0.1145
      4 C         140.9484  143.8909  164.2613 C.3     1  UNL1        0.0463
      5 C         141.1136  144.7644  163.0532 C.3     1  UNL1        0.0746
      6 N         140.3610  144.4526  161.7937 N.3     1  UNL1       -0.2722
      7 C         139.4432  143.2673  161.7423 C.3     1  UNL1        0.0746
      8 C         139.2780  142.3938  162.9504 C.3     1  UNL1        0.0463
      9 C         140.7832  143.0173  165.4695 C.3     1  UNL1        0.1254
     10 N         140.6179  142.1437  166.6776 N.am    1  UNL1       -0.2543
     11 C         139.7001  140.9584  166.6262 C.2     1  UNL1        0.2572
     12 O         139.5348  140.0848  167.8344 O.2     1  UNL1       -0.2719
     13 C         141.3705  142.4555  167.9372 C.ar    1  UNL1        0.0540
     14 C         140.6944  143.2001  169.0500 C.ar    1  UNL1        0.0149
     15 C         141.4470  143.5119  170.3095 C.ar    1  UNL1        0.0013
     16 C         142.8756  143.0790  170.4562 C.ar    1  UNL1        0.0001
     17 C         143.5518  142.3343  169.3434 C.ar    1  UNL1        0.0013
     18 C         142.7992  142.0225  168.0838 C.ar    1  UNL1        0.0149
     19 C         138.0297  139.4613  165.3153 C.3     1  UNL1        0.1484
     20 C         138.5843  138.0761  165.4688 C.2     1  UNL1        0.3201
     21 O         139.7921  137.6604  164.6824 O.2     1  UNL1       -0.2500
     22 C         136.9997  137.6058  167.4733 C.3     1  UNL1        0.2556
     23 O         137.9312  137.1067  166.4088 O.3     1  UNL1       -0.4443
     24 C         140.5263  145.3262  160.5855 C.3     1  UNL1        0.0768
     25 C         141.5034  144.9458  159.5129 C.3     1  UNL1        0.0437
     26 C         142.0687  143.5570  159.4716 C.ar    1  UNL1       -0.0208
     27 C         143.2838  143.2173  160.2829 C.ar    1  UNL1       -0.0042
     28 C         143.8490  141.8286  160.2415 C.ar    1  UNL1       -0.0003
     29 C         143.1992  140.7794  159.3888 C.ar    1  UNL1       -0.0000
     30 C         141.9841  141.1190  158.5775 C.ar    1  UNL1       -0.0003
     31 C         141.4189  142.5078  158.6189 C.ar    1  UNL1       -0.0042
@<TRIPOS>BOND
     1    22    23    1
     2    23    20    1
     3    20    21    2
     4    20    19    1
     5    19     1    1
     6     1     2    1
     7     2     3    1
     8     3     4    1
     9     4     5    1
    10     5     6    1
    11     6    24    1
    12    24    25    1
    13    25    26    1
    14    26    27   ar
    15    27    28   ar
    16    28    29   ar
    17    29    30   ar
    18    30    31   ar
    19     6     7    1
    20     7     8    1
    21     3     9    1
    22     9    10    1
    23    10    13    1
    24    13    14   ar
    25    14    15   ar
    26    15    16   ar
    27    16    17   ar
    28    17    18   ar
    29    10    11   am
    30    11    12    2
    31    11     1    1
    32     8     3    1
    33    18    13   ar
    34    31    26   ar
@<TRIPOS>MOLECULE
*****
 31 34 0 0 0
SMALL
GASTEIGER

@<TRIPOS>ATOM
      1 C         142.3309  140.0066  164.1881 C.3     1  UNL1        0.2023
      2 O         141.9686  141.0190  163.1423 O.3     1  UNL1       -0.3495
      3 C         141.6321  142.4246  163.5438 C.3     1  UNL1        0.1145
      4 C         141.2957  143.8302  163.9454 C.3     1  UNL1        0.0463
      5 C         140.9334  144.8426  162.8996 C.3     1  UNL1        0.0746
      6 N         140.9076  144.4494  161.4522 N.3     1  UNL1       -0.2722
      7 C         141.2440  143.0439  161.0507 C.3     1  UNL1        0.0746
      8 C         141.6063  142.0315  162.0965 C.3     1  UNL1        0.0463
      9 C         141.6580  142.8178  164.9912 C.3     1  UNL1        0.1254
     10 N         142.0203  141.8053  166.0370 N.am    1  UNL1       -0.2543
     11 C         142.3567  140.3997  165.6354 C.2     1  UNL1        0.2572
     12 O         142.7190  139.3872  166.6813 O.2     1  UNL1       -0.2719
     13 C         142.0462  142.1984  167.4843 C.ar    1  UNL1        0.0540
     14 C         143.3530  142.2802  168.2160 C.ar    1  UNL1        0.0149
     15 C         143.3788  142.6733  169.6634 C.ar    1  UNL1        0.0013
     16 C         142.0979  142.9846  170.3790 C.ar    1  UNL1        0.0001
     17 C         140.7909  142.9028  169.6473 C.ar    1  UNL1        0.0013
     18 C         140.7651  142.5097  168.1999 C.ar    1  UNL1        0.0149
     19 C         142.6673  138.6010  163.7866 C.3     1  UNL1        0.1484
     20 C         141.5737  137.5902  163.6070 C.2     1  UNL1        0.3201
     21 O         140.9206  136.9707  164.8069 O.2     1  UNL1       -0.2500
     22 C         140.2334  138.1061  161.4420 C.3     1  UNL1        0.2556
     23 O         141.1332  137.1988  162.2276 O.3     1  UNL1       -0.4443
     24 C         140.5453  145.4619  160.4064 C.3     1  UNL1        0.0768
     25 C         141.1839  145.4012  159.0506 C.3     1  UNL1        0.0437
     26 C         140.3301  145.2673  157.8246 C.ar    1  UNL1       -0.0208
     27 C         139.6524  143.9640  157.5212 C.ar    1  UNL1       -0.0042
     28 C         138.7986  143.8301  156.2952 C.ar    1  UNL1       -0.0003
     29 C         138.6224  144.9997  155.3727 C.ar    1  UNL1       -0.0000
     30 C         139.3000  146.3030  155.6760 C.ar    1  UNL1       -0.0003
     31 C         140.1538  146.4368  156.9020 C.ar    1  UNL1       -0.0042
@<TRIPOS>BOND
     1    22    23    1
     2    23    20    1
     3    20    21    2
     4    20    19    1
     5    19     1    1
     6     1     2    1
     7     2     3    1
     8     3     4    1
     9     4     5    1
    10     5     6    1
    11     6    24    1
    12    24    25    1
    13    25    26    1
    14    26    27   ar
    15    27    28   ar
    16    28    29   ar
    17    29    30   ar
    18    30    31   ar
    19     6     7    1
    20     7     8    1
    21     3     9    1
    22     9    10    1
    23    10    13    1
    24    13    14   ar
    25    14    15   ar
    26    15    16   ar
    27    16    17   ar
    28    17    18   ar
    29    10    11   am
    30    11    12    2
    31    11     1    1
    32     8     3    1
    33    18    13   ar
    34    31    26   ar
@<TRIPOS>MOLECULE
*****
 31 34 0 0 0
SMALL
GASTEIGER

@<TRIPOS>ATOM
      1 C         139.6470  142.3026  164.1786 C.3     1  UNL1        0.2023
      2 O         140.1400  141.4184  163.0717 O.3     1  UNL1       -0.3495
      3 C         141.2577  140.4509  163.3261 C.3     1  UNL1        0.1145
      4 C         142.3754  139.4834  163.5804 C.3     1  UNL1        0.0463
      5 C         142.8683  138.5992  162.4736 C.3     1  UNL1        0.0746
      6 N         142.2436  138.6824  161.1124 N.3     1  UNL1       -0.2722
      7 C         141.1259  139.6499  160.8581 C.3     1  UNL1        0.0746
      8 C         140.6330  140.5341  161.9649 C.3     1  UNL1        0.0463
      9 C         141.8824  140.3676  164.6872 C.3     1  UNL1        0.1254
     10 N         141.3894  141.2519  165.7941 N.am    1  UNL1       -0.2543
     11 C         140.2717  142.2194  165.5397 C.2     1  UNL1        0.2572
     12 O         139.7787  143.1037  166.6466 O.2     1  UNL1       -0.2719
     13 C         142.0141  141.1687  167.1553 C.ar    1  UNL1        0.0540
     14 C         141.8070  139.9482  168.0022 C.ar    1  UNL1        0.0149
     15 C         142.4317  139.8649  169.3634 C.ar    1  UNL1        0.0013
     16 C         143.2636  141.0022  169.8776 C.ar    1  UNL1        0.0001
     17 C         143.4708  142.2228  169.0306 C.ar    1  UNL1        0.0013
     18 C         142.8461  142.3061  167.6695 C.ar    1  UNL1        0.0149
     19 C         138.5293  143.2702  163.9242 C.3     1  UNL1        0.1484
     20 C         138.3246  143.8353  162.5499 C.2     1  UNL1        0.3201
     21 O         137.7194  142.9855  161.4720 O.2     1  UNL1       -0.2500
     22 C         140.0329  145.5328  161.5750 C.3     1  UNL1        0.2556
     23 O         138.7252  145.2500  162.2534 O.3     1  UNL1       -0.4443
     24 C         142.7366  137.7981  160.0056 C.3     1  UNL1        0.0768
     25 C         142.6956  138.2801  158.5858 C.3     1  UNL1        0.0437
     26 C         142.1785  137.3802  157.5028 C.ar    1  UNL1       -0.0208
     27 C         140.8923  137.7093  156.8046 C.ar    1  UNL1       -0.0042
     28 C         140.3753  136.8093  155.7217 C.ar    1  UNL1       -0.0003
     29 C         141.1444  135.5803  155.3370 C.ar    1  UNL1       -0.0000
     30 C         142.4305  135.2512  156.0352 C.ar    1  UNL1       -0.0003
     31 C         142.9475  136.1511  157.1181 C.ar    1  UNL1       -0.0042
@<TRIPOS>BOND
     1    22    23    1
     2    23    20    1
     3    20    21    2
     4    20    19    1
     5    19     1    1
     6     1     2    1
     7     2     3    1
     8     3     4    1
     9     4     5    1
    10     5     6    1
    11     6    24    1
    12    24    25    1
    13    25    26    1
    14    26    27   ar
    15    27    28   ar
    16    28    29   ar
    17    29    30   ar
    18    30    31   ar
    19     6     7    1
    20     7     8    1
    21     3     9    1
    22     9    10    1
    23    10    13    1
    24    13    14   ar
    25    14    15   ar
    26    15    16   ar
    27    16    17   ar
    28    17    18   ar
    29    10    11   am
    30    11    12    2
    31    11     1    1
    32     8     3    1
    33    18    13   ar
    34    31    26   ar
@<TRIPOS>MOLECULE
*****
 31 34 0 0 0
SMALL
GASTEIGER

@<TRIPOS>ATOM
      1 C         143.7395  139.9100  157.1084 C.3     1  UNL1        0.2023
      2 O         143.6777  140.1018  158.5948 O.3     1  UNL1       -0.3495
      3 C         143.2356  138.9736  159.4789 C.3     1  UNL1        0.1145
      4 C         142.7935  137.8453  160.3630 C.3     1  UNL1        0.0463
      5 C         142.7317  138.0372  161.8493 C.3     1  UNL1        0.0746
      6 N         143.1119  139.3573  162.4516 N.3     1  UNL1       -0.2722
      7 C         143.5540  140.4855  161.5676 C.3     1  UNL1        0.0746
      8 C         143.6158  140.2936  160.0812 C.3     1  UNL1        0.0463
      9 C         142.8553  137.6535  158.8766 C.3     1  UNL1        0.1254
     10 N         142.9171  137.4617  157.3902 N.am    1  UNL1       -0.2543
     11 C         143.3592  138.5899  156.5061 C.2     1  UNL1        0.2572
     12 O         143.4210  138.3981  155.0196 O.2     1  UNL1       -0.2719
     13 C         142.5368  136.1416  156.7878 C.ar    1  UNL1        0.0540
     14 C         141.4264  136.0681  155.7822 C.ar    1  UNL1        0.0149
     15 C         141.0461  134.7480  155.1799 C.ar    1  UNL1        0.0013
     16 C         141.7763  133.5014  155.5832 C.ar    1  UNL1        0.0001
     17 C         142.8869  133.5748  156.5889 C.ar    1  UNL1        0.0013
     18 C         143.2671  134.8949  157.1912 C.ar    1  UNL1        0.0149
     19 C         144.1816  141.0382  156.2242 C.3     1  UNL1        0.1484
     20 C         145.5450  141.6386  156.3997 C.2     1  UNL1        0.3201
     21 O         145.8441  142.4813  157.6041 O.2     1  UNL1       -0.2500
     22 C         148.0146  141.8561  155.6228 C.3     1  UNL1        0.2556
     23 O         146.6092  141.3963  155.3708 O.3     1  UNL1       -0.4443
     24 C         143.0501  139.5491  163.9381 C.3     1  UNL1        0.0768
     25 C         142.5043  138.4597  164.8128 C.3     1  UNL1        0.0437
     26 C         141.0806  138.5170  165.2819 C.ar    1  UNL1       -0.0208
     27 C         140.0768  137.5354  164.7538 C.ar    1  UNL1       -0.0042
     28 C         138.6533  137.5927  165.2229 C.ar    1  UNL1       -0.0003
     29 C         138.2334  138.6317  166.2201 C.ar    1  UNL1       -0.0000
     30 C         139.2372  139.6132  166.7482 C.ar    1  UNL1       -0.0003
     31 C         140.6607  139.5559  166.2791 C.ar    1  UNL1       -0.0042
@<TRIPOS>BOND
     1    22    23    1
     2    23    20    1
     3    20    21    2
     4    20    19    1
     5    19     1    1
     6     1     2    1
     7     2     3    1
     8     3     4    1
     9     4     5    1
    10     5     6    1
    11     6    24    1
    12    24    25    1
    13    25    26    1
    14    26    27   ar
    15    27    28   ar
    16    28    29   ar
    17    29    30   ar
    18    30    31   ar
    19     6     7    1
    20     7     8    1
    21     3     9    1
    22     9    10    1
    23    10    13    1
    24    13    14   ar
    25    14    15   ar
    26    15    16   ar
    27    16    17   ar
    28    17    18   ar
    29    10    11   am
    30    11    12    2
    31    11     1    1
    32     8     3    1
    33    18    13   ar
    34    31    26   ar
@<TRIPOS>MOLECULE
*****
 31 34 0 0 0
SMALL
GASTEIGER

@<TRIPOS>ATOM
      1 C         138.2783  140.7100  158.1542 C.3     1  UNL1        0.2023
      2 O         138.1489  140.4908  159.6324 O.3     1  UNL1       -0.3495
      3 C         138.8864  139.3626  160.2907 C.3     1  UNL1        0.1145
      4 C         139.6239  138.2344  160.9490 C.3     1  UNL1        0.0463
      5 C         139.4944  138.0151  162.4272 C.3     1  UNL1        0.0746
      6 N         138.6275  138.9240  163.2471 N.3     1  UNL1       -0.2722
      7 C         137.8900  140.0522  162.5889 C.3     1  UNL1        0.0746
      8 C         138.0195  140.2715  161.1107 C.3     1  UNL1        0.0463
      9 C         139.7533  138.4537  159.4708 C.3     1  UNL1        0.1254
     10 N         139.8827  138.6730  157.9925 N.am    1  UNL1       -0.2543
     11 C         139.1452  139.8011  157.3342 C.2     1  UNL1        0.2572
     12 O         139.2746  140.0205  155.8560 O.2     1  UNL1       -0.2719
     13 C         140.7496  137.7641  157.1725 C.ar    1  UNL1        0.0540
     14 C         142.2271  137.7078  157.4250 C.ar    1  UNL1        0.0149
     15 C         143.0941  136.7989  156.6050 C.ar    1  UNL1        0.0013
     16 C         142.4835  135.9463  155.5326 C.ar    1  UNL1        0.0001
     17 C         141.0059  136.0026  155.2800 C.ar    1  UNL1        0.0013
     18 C         140.1390  136.9115  156.1000 C.ar    1  UNL1        0.0149
     19 C         137.5408  141.8382  157.4959 C.3     1  UNL1        0.1484
     20 C         136.4625  141.5464  156.4948 C.2     1  UNL1        0.3201
     21 O         136.1351  142.5517  155.4307 O.2     1  UNL1       -0.2500
     22 C         134.2164  140.2419  156.4396 C.3     1  UNL1        0.2556
     23 O         135.7117  140.2494  156.5579 O.3     1  UNL1       -0.4443
     24 C         138.4981  138.7047  164.7254 C.3     1  UNL1        0.0768
     25 C         138.7045  139.8480  165.6741 C.3     1  UNL1        0.0437
     26 C         139.8339  139.8095  166.6606 C.ar    1  UNL1       -0.0208
     27 C         139.5685  140.0642  168.1148 C.ar    1  UNL1       -0.0042
     28 C         140.6978  140.0257  169.1012 C.ar    1  UNL1       -0.0003
     29 C         142.0925  139.7325  168.6335 C.ar    1  UNL1       -0.0000
     30 C         142.3579  139.4778  167.1793 C.ar    1  UNL1       -0.0003
     31 C         141.2286  139.5163  166.1929 C.ar    1  UNL1       -0.0042
@<TRIPOS>BOND
     1    22    23    1
     2    23    20    1
     3    20    21    2
     4    20    19    1
     5    19     1    1
     6     1     2    1
     7     2     3    1
     8     3     4    1
     9     4     5    1
    10     5     6    1
    11     6    24    1
    12    24    25    1
    13    25    26    1
    14    26    27   ar
    15    27    28   ar
    16    28    29   ar
    17    29    30   ar
    18    30    31   ar
    19     6     7    1
    20     7     8    1
    21     3     9    1
    22     9    10    1
    23    10    13    1
    24    13    14   ar
    25    14    15   ar
    26    15    16   ar
    27    16    17   ar
    28    17    18   ar
    29    10    11   am
    30    11    12    2
    31    11     1    1
    32     8     3    1
    33    18    13   ar
    34    31    26   ar
