@<TRIPOS>MOLECULE
*****
 38 41 0 0 0
SMALL
GASTEIGER

@<TRIPOS>ATOM
      1 C         142.0914  137.7338  156.6357 C.3     1  UNL1        0.0738
      2 C         141.7440  137.9316  158.0814 C.ar    1  UNL1        0.1424
      3 N         142.7839  137.7113  159.1396 N.ar    1  UNL1       -0.2158
      4 C         142.4365  137.9091  160.5854 C.ar    1  UNL1        0.1377
      5 C         141.0490  138.3272  160.9729 C.ar    1  UNL1        0.0698
      6 C         140.0091  138.5475  159.9146 C.ar    1  UNL1        0.1459
      7 N         140.3565  138.3497  158.4689 N.ar    1  UNL1       -0.2149
      8 N         143.4765  137.6888  161.6436 N.pl3   1  UNL1       -0.2780
      9 H         144.1153  136.9445  161.5586 H       1  UNL1        0.1555
     10 C         143.5432  138.6025  162.8314 C.ar    1  UNL1        0.1648
     11 N         144.3101  139.8891  162.9121 N.ar    1  UNL1       -0.2223
     12 C         144.0956  140.4718  164.2775 C.ar    1  UNL1        0.1119
     13 C         143.1961  139.5453  165.0408 C.ar    1  UNL1        0.1047
     14 S         142.8547  138.3900  164.1470 S.2     1  UNL1       -0.0468
     15 C         142.7213  139.7399  166.4503 C.2     1  UNL1        0.2572
     16 O         143.2292  138.8464  167.5428 O.2     1  UNL1       -0.2692
     17 N         141.7386  140.8279  166.7672 N.am    1  UNL1       -0.2783
     18 H         141.4052  141.4143  166.0501 H       1  UNL1        0.1552
     19 C         141.2638  141.0225  168.1767 C.ar    1  UNL1        0.0750
     20 C         139.9586  140.4291  168.6171 C.ar    1  UNL1        0.0738
     21 CL        139.1279  139.6410  167.6481 Cl      1  UNL1       -0.0809
     22 C         139.4838  140.6237  170.0267 C.ar    1  UNL1        0.0333
     23 C         140.3144  141.4117  170.9958 C.ar    1  UNL1        0.0994
     24 N         141.6197  142.0052  170.5554 N.ar    1  UNL1       -0.2468
     25 C         142.0944  141.8105  169.1458 C.ar    1  UNL1        0.0736
     26 C         143.3997  142.4040  168.7054 C.3     1  UNL1        0.0535
     27 N         138.6215  138.9656  160.3021 N.pl3   1  UNL1       -0.2602
     28 H         137.8508  138.4071  160.0505 H       1  UNL1        0.1680
     29 N         138.4084  140.2345  161.0730 N.3     1  UNL1       -0.2041
     30 C         138.6010  141.5617  160.4010 C.3     1  UNL1        0.1092
     31 C         138.3878  142.8307  161.1719 C.3     1  UNL1        0.0915
     32 N         137.9820  142.7725  162.6147 N.3     1  UNL1       -0.2681
     33 C         137.7893  141.4453  163.2867 C.3     1  UNL1        0.0915
     34 C         138.0025  140.1764  162.5159 C.3     1  UNL1        0.1092
     35 C         137.7688  144.0414  163.3856 C.3     1  UNL1        0.1043
     36 C         138.1325  144.1060  164.8393 C.3     1  UNL1        0.1544
     37 O         138.5809  145.4038  165.4434 O.3     1  UNL1       -0.3805
     38 H         139.4287  145.6667  165.0521 H       1  UNL1        0.2105
@<TRIPOS>BOND
     1     1     2    1
     2     2     3   ar
     3     3     4   ar
     4     4     8    1
     5     8    10    1
     6    10    11   ar
     7    11    12   ar
     8    12    13   ar
     9    13    15    1
    10    15    16    2
    11    15    17   am
    12    17    19    1
    13    19    20   ar
    14    20    21    1
    15    20    22   ar
    16    22    23   ar
    17    23    24   ar
    18    24    25   ar
    19    25    26    1
    20    13    14   ar
    21     4     5   ar
    22     5     6   ar
    23     6    27    1
    24    27    29    1
    25    29    30    1
    26    30    31    1
    27    31    32    1
    28    32    35    1
    29    35    36    1
    30    36    37    1
    31    32    33    1
    32    33    34    1
    33     6     7   ar
    34     7     2   ar
    35    14    10   ar
    36    34    29    1
    37    25    19   ar
    38     8     9    1
    39    17    18    1
    40    27    28    1
    41    37    38    1
@<TRIPOS>MOLECULE
*****
 38 41 0 0 0
SMALL
GASTEIGER

@<TRIPOS>ATOM
      1 C         141.0754  145.8609  156.8315 C.3     1  UNL1        0.0738
      2 C         140.8767  145.1761  158.1512 C.ar    1  UNL1        0.1424
      3 N         141.8367  145.4239  159.2768 N.ar    1  UNL1       -0.2158
      4 C         141.6380  144.7392  160.5965 C.ar    1  UNL1        0.1377
      5 C         140.4793  143.8067  160.7906 C.ar    1  UNL1        0.0698
      6 C         139.5193  143.5589  159.6650 C.ar    1  UNL1        0.1459
      7 N         139.7180  144.2436  158.3453 N.ar    1  UNL1       -0.2149
      8 N         142.5980  144.9870  161.7221 N.pl3   1  UNL1       -0.2780
      9 H         142.9609  145.8902  161.8697 H       1  UNL1        0.1555
     10 C         143.0052  143.8587  162.6227 C.ar    1  UNL1        0.1648
     11 N         144.1893  142.9587  162.4283 N.ar    1  UNL1       -0.2223
     12 C         144.2157  141.9760  163.5613 C.ar    1  UNL1        0.1119
     13 C         143.0479  142.2688  164.4560 C.ar    1  UNL1        0.1047
     14 S         142.2998  143.4323  163.8759 S.2     1  UNL1       -0.0468
     15 C         142.6908  141.5280  165.7105 C.2     1  UNL1        0.2572
     16 O         143.3193  140.1972  166.0003 O.2     1  UNL1       -0.2692
     17 N         141.7054  142.1181  166.6752 N.am    1  UNL1       -0.2783
     18 H         141.2929  142.9916  166.4850 H       1  UNL1        0.1552
     19 C         141.3483  141.3774  167.9298 C.ar    1  UNL1        0.0750
     20 C         142.2086  141.5124  169.1510 C.ar    1  UNL1        0.0738
     21 CL        143.4260  142.3881  169.1180 Cl      1  UNL1       -0.0809
     22 C         141.8515  140.7716  170.4056 C.ar    1  UNL1        0.0333
     23 C         140.6341  139.8958  170.4387 C.ar    1  UNL1        0.0994
     24 N         139.7738  139.7608  169.2174 N.ar    1  UNL1       -0.2468
     25 C         140.1310  140.5016  167.9629 C.ar    1  UNL1        0.0736
     26 C         139.2707  140.3666  166.7416 C.3     1  UNL1        0.0535
     27 N         138.3605  142.6263  159.8592 N.pl3   1  UNL1       -0.2602
     28 H         137.5147  142.7859  159.3812 H       1  UNL1        0.1680
     29 N         138.4904  141.4505  160.7814 N.3     1  UNL1       -0.2041
     30 C         137.8457  141.4845  162.1354 C.3     1  UNL1        0.1092
     31 C         137.9756  140.3087  163.0577 C.3     1  UNL1        0.0915
     32 N         138.7501  139.0989  162.6260 N.3     1  UNL1       -0.2681
     33 C         139.3949  139.0649  161.2721 C.3     1  UNL1        0.0915
     34 C         139.2650  140.2406  160.3498 C.3     1  UNL1        0.1092
     35 C         138.8800  137.9231  163.5483 C.3     1  UNL1        0.1043
     36 C         140.1641  137.6876  164.2870 C.3     1  UNL1        0.1544
     37 O         141.2487  138.7233  164.2549 O.3     1  UNL1       -0.3805
     38 H         141.5933  138.8027  163.3516 H       1  UNL1        0.2105
@<TRIPOS>BOND
     1     1     2    1
     2     2     3   ar
     3     3     4   ar
     4     4     8    1
     5     8    10    1
     6    10    11   ar
     7    11    12   ar
     8    12    13   ar
     9    13    15    1
    10    15    16    2
    11    15    17   am
    12    17    19    1
    13    19    20   ar
    14    20    21    1
    15    20    22   ar
    16    22    23   ar
    17    23    24   ar
    18    24    25   ar
    19    25    26    1
    20    13    14   ar
    21     4     5   ar
    22     5     6   ar
    23     6    27    1
    24    27    29    1
    25    29    30    1
    26    30    31    1
    27    31    32    1
    28    32    35    1
    29    35    36    1
    30    36    37    1
    31    32    33    1
    32    33    34    1
    33     6     7   ar
    34     7     2   ar
    35    14    10   ar
    36    34    29    1
    37    25    19   ar
    38     8     9    1
    39    17    18    1
    40    27    28    1
    41    37    38    1
@<TRIPOS>MOLECULE
*****
 38 41 0 0 0
SMALL
GASTEIGER

@<TRIPOS>ATOM
      1 C         138.0521  140.6923  156.9364 C.3     1  UNL1        0.0738
      2 C         138.0942  140.9549  158.4126 C.ar    1  UNL1        0.1424
      3 N         137.7751  139.8536  159.3797 N.ar    1  UNL1       -0.2158
      4 C         137.8172  140.1163  160.8560 C.ar    1  UNL1        0.1377
      5 C         138.1783  141.4802  161.3651 C.ar    1  UNL1        0.0698
      6 C         138.4974  142.5815  160.3980 C.ar    1  UNL1        0.1459
      7 N         138.4553  142.3188  158.9218 N.ar    1  UNL1       -0.2149
      8 N         137.4981  139.0149  161.8231 N.pl3   1  UNL1       -0.2780
      9 H         136.7235  138.4286  161.6633 H       1  UNL1        0.1555
     10 C         138.3591  138.8069  163.0336 C.ar    1  UNL1        0.1648
     11 N         139.2637  137.6363  163.2816 N.ar    1  UNL1       -0.2223
     12 C         139.9304  137.8390  164.6099 C.ar    1  UNL1        0.1119
     13 C         139.4379  139.1348  165.1829 C.ar    1  UNL1        0.1047
     14 S         138.4668  139.7330  164.2087 S.2     1  UNL1       -0.0468
     15 C         139.8450  139.7282  166.4990 C.2     1  UNL1        0.2572
     16 O         138.9608  139.5672  167.6998 O.2     1  UNL1       -0.2692
     17 N         141.1364  140.4826  166.6142 N.am    1  UNL1       -0.2783
     18 H         141.7168  140.5883  165.8260 H       1  UNL1        0.1552
     19 C         141.5435  141.0761  167.9303 C.ar    1  UNL1        0.0750
     20 C         141.0634  142.4434  168.3170 C.ar    1  UNL1        0.0738
     21 CL        140.1761  143.2175  167.3877 Cl      1  UNL1       -0.0809
     22 C         141.4706  143.0368  169.6332 C.ar    1  UNL1        0.0333
     23 C         142.3578  142.2628  170.5625 C.ar    1  UNL1        0.0994
     24 N         142.8380  140.8954  170.1757 N.ar    1  UNL1       -0.2468
     25 C         142.4308  140.3020  168.8596 C.ar    1  UNL1        0.0736
     26 C         142.9109  138.9346  168.4728 C.3     1  UNL1        0.0535
     27 N         138.8586  143.9455  160.9071 N.pl3   1  UNL1       -0.2602
     28 H         138.2852  144.7174  160.6959 H       1  UNL1        0.1680
     29 N         140.0932  144.1333  161.7379 N.3     1  UNL1       -0.2041
     30 C         139.9864  144.6997  163.1227 C.3     1  UNL1        0.1092
     31 C         141.2211  144.8875  163.9536 C.3     1  UNL1        0.0915
     32 N         142.5626  144.5088  163.3996 N.3     1  UNL1       -0.2681
     33 C         142.6695  143.9424  162.0148 C.3     1  UNL1        0.0915
     34 C         141.4348  143.7546  161.1839 C.3     1  UNL1        0.1092
     35 C         143.7973  144.6966  164.2304 C.3     1  UNL1        0.1043
     36 C         144.4655  143.5102  164.8596 C.3     1  UNL1        0.1544
     37 O         143.9084  142.9163  166.1195 O.3     1  UNL1       -0.3805
     38 H         143.9958  143.5551  166.8442 H       1  UNL1        0.2105
@<TRIPOS>BOND
     1     1     2    1
     2     2     3   ar
     3     3     4   ar
     4     4     8    1
     5     8    10    1
     6    10    11   ar
     7    11    12   ar
     8    12    13   ar
     9    13    15    1
    10    15    16    2
    11    15    17   am
    12    17    19    1
    13    19    20   ar
    14    20    21    1
    15    20    22   ar
    16    22    23   ar
    17    23    24   ar
    18    24    25   ar
    19    25    26    1
    20    13    14   ar
    21     4     5   ar
    22     5     6   ar
    23     6    27    1
    24    27    29    1
    25    29    30    1
    26    30    31    1
    27    31    32    1
    28    32    35    1
    29    35    36    1
    30    36    37    1
    31    32    33    1
    32    33    34    1
    33     6     7   ar
    34     7     2   ar
    35    14    10   ar
    36    34    29    1
    37    25    19   ar
    38     8     9    1
    39    17    18    1
    40    27    28    1
    41    37    38    1
@<TRIPOS>MOLECULE
*****
 38 41 0 0 0
SMALL
GASTEIGER

@<TRIPOS>ATOM
      1 C         143.2087  138.3140  156.4227 C.3     1  UNL1        0.0738
      2 C         143.3023  138.8858  157.8063 C.ar    1  UNL1        0.1424
      3 N         143.2399  137.9780  158.9987 N.ar    1  UNL1       -0.2158
      4 C         143.3335  138.5498  160.3823 C.ar    1  UNL1        0.1377
      5 C         143.4894  140.0294  160.5735 C.ar    1  UNL1        0.0698
      6 C         143.5517  140.9371  159.3810 C.ar    1  UNL1        0.1459
      7 N         143.4582  140.3653  157.9974 N.ar    1  UNL1       -0.2149
      8 N         143.2712  137.6419  161.5748 N.pl3   1  UNL1       -0.2780
      9 H         143.9158  136.9033  161.6654 H       1  UNL1        0.1555
     10 C         142.2268  137.8595  162.6293 C.ar    1  UNL1        0.1648
     11 N         140.9029  137.1598  162.7166 N.ar    1  UNL1       -0.2223
     12 C         140.1808  137.6828  163.9229 C.ar    1  UNL1        0.1119
     13 C         141.0584  138.7059  164.5810 C.ar    1  UNL1        0.1047
     14 S         142.3229  138.8150  163.7816 S.2     1  UNL1       -0.0468
     15 C         140.7294  139.4832  165.8210 C.2     1  UNL1        0.2572
     16 O         139.3765  139.3472  166.4545 O.2     1  UNL1       -0.2692
     17 N         141.7531  140.3966  166.4274 N.am    1  UNL1       -0.2783
     18 H         142.6410  140.4858  166.0116 H       1  UNL1        0.1552
     19 C         141.4241  141.1739  167.6673 C.ar    1  UNL1        0.0750
     20 C         140.7023  142.4845  167.5614 C.ar    1  UNL1        0.0738
     21 CL        140.3095  143.0179  166.2156 Cl      1  UNL1       -0.0809
     22 C         140.3733  143.2618  168.8014 C.ar    1  UNL1        0.0333
     23 C         140.7660  142.7285  170.1473 C.ar    1  UNL1        0.0994
     24 N         141.4878  141.4179  170.2532 N.ar    1  UNL1       -0.2468
     25 C         141.8168  140.6406  169.0132 C.ar    1  UNL1        0.0736
     26 C         142.5386  139.3299  169.1191 C.3     1  UNL1        0.0535
     27 N         143.7076  142.4168  159.5721 N.pl3   1  UNL1       -0.2602
     28 H         144.4561  142.8922  159.1442 H       1  UNL1        0.1680
     29 N         142.7233  143.1720  160.4150 N.3     1  UNL1       -0.2041
     30 C         141.3688  143.5092  159.8658 C.3     1  UNL1        0.1092
     31 C         140.3844  144.2644  160.7088 C.3     1  UNL1        0.0915
     32 N         140.7545  144.6824  162.1010 N.3     1  UNL1       -0.2681
     33 C         142.1090  144.3452  162.6502 C.3     1  UNL1        0.0915
     34 C         143.0933  143.5900  161.8073 C.3     1  UNL1        0.1092
     35 C         139.7701  145.4376  162.9439 C.3     1  UNL1        0.1043
     36 C         138.5723  144.7342  163.5100 C.3     1  UNL1        0.1544
     37 O         137.3744  144.4779  162.6442 O.3     1  UNL1       -0.3805
     38 H         136.9658  145.3228  162.3993 H       1  UNL1        0.2105
@<TRIPOS>BOND
     1     1     2    1
     2     2     3   ar
     3     3     4   ar
     4     4     8    1
     5     8    10    1
     6    10    11   ar
     7    11    12   ar
     8    12    13   ar
     9    13    15    1
    10    15    16    2
    11    15    17   am
    12    17    19    1
    13    19    20   ar
    14    20    21    1
    15    20    22   ar
    16    22    23   ar
    17    23    24   ar
    18    24    25   ar
    19    25    26    1
    20    13    14   ar
    21     4     5   ar
    22     5     6   ar
    23     6    27    1
    24    27    29    1
    25    29    30    1
    26    30    31    1
    27    31    32    1
    28    32    35    1
    29    35    36    1
    30    36    37    1
    31    32    33    1
    32    33    34    1
    33     6     7   ar
    34     7     2   ar
    35    14    10   ar
    36    34    29    1
    37    25    19   ar
    38     8     9    1
    39    17    18    1
    40    27    28    1
    41    37    38    1
@<TRIPOS>MOLECULE
*****
 38 41 0 0 0
SMALL
GASTEIGER

@<TRIPOS>ATOM
      1 C         139.5317  137.0872  155.5424 C.3     1  UNL1        0.0738
      2 C         139.8184  137.9092  156.7640 C.ar    1  UNL1        0.1424
      3 N         138.8779  139.0056  157.1679 N.ar    1  UNL1       -0.2158
      4 C         139.1646  139.8276  158.3895 C.ar    1  UNL1        0.1377
      5 C         140.3918  139.5531  159.2071 C.ar    1  UNL1        0.0698
      6 C         141.3323  138.4566  158.8032 C.ar    1  UNL1        0.1459
      7 N         141.0456  137.6347  157.5816 N.ar    1  UNL1       -0.2149
      8 N         138.2240  140.9241  158.7934 N.pl3   1  UNL1       -0.2780
      9 H         137.4810  141.1788  158.1998 H       1  UNL1        0.1555
     10 C         138.4155  141.6325  160.1016 C.ar    1  UNL1        0.1648
     11 N         138.7443  143.0854  160.2777 N.ar    1  UNL1       -0.2223
     12 C         138.8438  143.3632  161.7484 C.ar    1  UNL1        0.1119
     13 C         138.5766  142.0820  162.4813 C.ar    1  UNL1        0.1047
     14 S         138.3119  141.0124  161.4635 S.2     1  UNL1       -0.0468
     15 C         138.5745  141.9019  163.9704 C.2     1  UNL1        0.2572
     16 O         137.5910  142.6558  164.8156 O.2     1  UNL1       -0.2692
     17 N         139.5559  140.9680  164.6144 N.am    1  UNL1       -0.2783
     18 H         140.2015  140.4733  164.0597 H       1  UNL1        0.1552
     19 C         139.5538  140.7880  166.1036 C.ar    1  UNL1        0.0750
     20 C         140.2344  141.7956  166.9818 C.ar    1  UNL1        0.0738
     21 CL        140.9172  142.9834  166.3710 Cl      1  UNL1       -0.0809
     22 C         140.2323  141.6156  168.4710 C.ar    1  UNL1        0.0333
     23 C         139.5495  140.4278  169.0819 C.ar    1  UNL1        0.0994
     24 N         138.8689  139.4202  168.2036 N.ar    1  UNL1       -0.2468
     25 C         138.8711  139.6003  166.7144 C.ar    1  UNL1        0.0736
     26 C         138.1904  138.5926  165.8361 C.3     1  UNL1        0.0535
     27 N         142.5595  138.1821  159.6209 N.pl3   1  UNL1       -0.2602
     28 H         143.4095  137.9632  159.1748 H       1  UNL1        0.1680
     29 N         142.4918  138.2409  161.1182 N.3     1  UNL1       -0.2041
     30 C         143.5750  138.9331  161.8913 C.3     1  UNL1        0.1092
     31 C         143.5073  138.9919  163.3886 C.3     1  UNL1        0.0915
     32 N         142.3564  138.3586  164.1128 N.3     1  UNL1       -0.2681
     33 C         141.2732  137.6665  163.3397 C.3     1  UNL1        0.0915
     34 C         141.3409  137.6076  161.8424 C.3     1  UNL1        0.1092
     35 C         142.2887  138.4175  165.6101 C.3     1  UNL1        0.1043
     36 C         143.5454  138.5851  166.4117 C.3     1  UNL1        0.1544
     37 O         144.3383  137.3803  166.8240 O.3     1  UNL1       -0.3805
     38 H         143.8183  136.8486  167.4467 H       1  UNL1        0.2105
@<TRIPOS>BOND
     1     1     2    1
     2     2     3   ar
     3     3     4   ar
     4     4     8    1
     5     8    10    1
     6    10    11   ar
     7    11    12   ar
     8    12    13   ar
     9    13    15    1
    10    15    16    2
    11    15    17   am
    12    17    19    1
    13    19    20   ar
    14    20    21    1
    15    20    22   ar
    16    22    23   ar
    17    23    24   ar
    18    24    25   ar
    19    25    26    1
    20    13    14   ar
    21     4     5   ar
    22     5     6   ar
    23     6    27    1
    24    27    29    1
    25    29    30    1
    26    30    31    1
    27    31    32    1
    28    32    35    1
    29    35    36    1
    30    36    37    1
    31    32    33    1
    32    33    34    1
    33     6     7   ar
    34     7     2   ar
    35    14    10   ar
    36    34    29    1
    37    25    19   ar
    38     8     9    1
    39    17    18    1
    40    27    28    1
    41    37    38    1
@<TRIPOS>MOLECULE
*****
 38 41 0 0 0
SMALL
GASTEIGER

@<TRIPOS>ATOM
      1 C         136.3522  140.8623  156.6362 C.3     1  UNL1        0.0738
      2 C         137.5696  141.0247  157.4972 C.ar    1  UNL1        0.1424
      3 N         137.9850  142.3901  157.9589 N.ar    1  UNL1       -0.2158
      4 C         139.2024  142.5526  158.8199 C.ar    1  UNL1        0.1377
      5 C         140.0046  141.3496  159.2193 C.ar    1  UNL1        0.0698
      6 C         139.5892  139.9843  158.7576 C.ar    1  UNL1        0.1459
      7 N         138.3717  139.8218  157.8966 N.ar    1  UNL1       -0.2149
      8 N         139.6178  143.9180  159.2816 N.pl3   1  UNL1       -0.2780
      9 H         139.7011  144.6531  158.6320 H       1  UNL1        0.1555
     10 C         139.9062  144.1634  160.7330 C.ar    1  UNL1        0.1648
     11 N         140.4553  145.4294  161.3211 N.ar    1  UNL1       -0.2223
     12 C         140.5846  145.2344  162.8027 C.ar    1  UNL1        0.1119
     13 C         140.1154  143.8478  163.1304 C.ar    1  UNL1        0.1047
     14 S         139.6961  143.1860  161.8513 S.2     1  UNL1       -0.0468
     15 C         140.0729  143.2314  164.4972 C.2     1  UNL1        0.2572
     16 O         139.4434  143.9764  165.6367 O.2     1  UNL1       -0.2692
     17 N         140.6600  141.8699  164.7245 N.am    1  UNL1       -0.2783
     18 H         141.0732  141.3809  163.9766 H       1  UNL1        0.1552
     19 C         140.6176  141.2534  166.0913 C.ar    1  UNL1        0.0750
     20 C         139.4356  140.4279  166.5053 C.ar    1  UNL1        0.0738
     21 CL        138.2960  140.2188  165.5526 Cl      1  UNL1       -0.0809
     22 C         139.3932  139.8115  167.8722 C.ar    1  UNL1        0.0333
     23 C         140.5327  140.0205  168.8250 C.ar    1  UNL1        0.0994
     24 N         141.7147  140.8461  168.4109 N.ar    1  UNL1       -0.2468
     25 C         141.7571  141.4625  167.0440 C.ar    1  UNL1        0.0736
     26 C         142.9391  142.2880  166.6300 C.3     1  UNL1        0.0535
     27 N         140.3913  138.7812  159.1569 N.pl3   1  UNL1       -0.2602
     28 H         140.6811  138.1339  158.4741 H       1  UNL1        0.1680
     29 N         140.7520  138.5645  160.5967 N.3     1  UNL1       -0.2041
     30 C         139.6778  138.5384  161.6433 C.3     1  UNL1        0.1092
     31 C         140.0385  138.3216  163.0831 C.3     1  UNL1        0.0915
     32 N         141.4734  138.1309  163.4762 N.3     1  UNL1       -0.2681
     33 C         142.5477  138.1570  162.4296 C.3     1  UNL1        0.0915
     34 C         142.1870  138.3738  160.9899 C.3     1  UNL1        0.1092
     35 C         141.8341  137.9141  164.9160 C.3     1  UNL1        0.1043
     36 C         143.1390  138.4283  165.4479 C.3     1  UNL1        0.1544
     37 O         143.3567  138.5321  166.9284 O.3     1  UNL1       -0.3805
     38 H         142.7568  139.1992  167.2974 H       1  UNL1        0.2105
@<TRIPOS>BOND
     1     1     2    1
     2     2     3   ar
     3     3     4   ar
     4     4     8    1
     5     8    10    1
     6    10    11   ar
     7    11    12   ar
     8    12    13   ar
     9    13    15    1
    10    15    16    2
    11    15    17   am
    12    17    19    1
    13    19    20   ar
    14    20    21    1
    15    20    22   ar
    16    22    23   ar
    17    23    24   ar
    18    24    25   ar
    19    25    26    1
    20    13    14   ar
    21     4     5   ar
    22     5     6   ar
    23     6    27    1
    24    27    29    1
    25    29    30    1
    26    30    31    1
    27    31    32    1
    28    32    35    1
    29    35    36    1
    30    36    37    1
    31    32    33    1
    32    33    34    1
    33     6     7   ar
    34     7     2   ar
    35    14    10   ar
    36    34    29    1
    37    25    19   ar
    38     8     9    1
    39    17    18    1
    40    27    28    1
    41    37    38    1
@<TRIPOS>MOLECULE
*****
 38 41 0 0 0
SMALL
GASTEIGER

@<TRIPOS>ATOM
      1 C         140.1131  140.1353  170.8077 C.3     1  UNL1        0.0738
      2 C         140.3152  139.9540  169.3324 C.ar    1  UNL1        0.1424
      3 N         139.1290  139.8483  168.4204 N.ar    1  UNL1       -0.2158
      4 C         139.3310  139.6670  166.9452 C.ar    1  UNL1        0.1377
      5 C         140.7192  139.5915  166.3820 C.ar    1  UNL1        0.0698
      6 C         141.9053  139.6972  167.2940 C.ar    1  UNL1        0.1459
      7 N         141.7033  139.8785  168.7692 N.ar    1  UNL1       -0.2149
      8 N         138.1448  139.5613  166.0331 N.pl3   1  UNL1       -0.2780
      9 H         137.2781  139.2556  166.3862 H       1  UNL1        0.1555
     10 C         138.2792  139.9213  164.5832 C.ar    1  UNL1        0.1648
     11 N         138.1434  138.9785  163.4244 N.ar    1  UNL1       -0.2223
     12 C         138.3532  139.7618  162.1624 C.ar    1  UNL1        0.1119
     13 C         138.6186  141.1887  162.5413 C.ar    1  UNL1        0.1047
     14 S         138.5729  141.2872  164.0374 S.2     1  UNL1       -0.0468
     15 C         138.8833  142.3187  161.5910 C.2     1  UNL1        0.2572
     16 O         137.9367  143.4803  161.5249 O.2     1  UNL1       -0.2692
     17 N         140.0946  142.2869  160.7068 N.am    1  UNL1       -0.2783
     18 H         140.7159  141.5244  160.7502 H       1  UNL1        0.1552
     19 C         140.3593  143.4169  159.7565 C.ar    1  UNL1        0.0750
     20 C         139.6339  143.4795  158.4451 C.ar    1  UNL1        0.0738
     21 CL        138.6437  142.4122  158.0839 Cl      1  UNL1       -0.0809
     22 C         139.8987  144.6096  157.4948 C.ar    1  UNL1        0.0333
     23 C         140.8889  145.6769  157.8559 C.ar    1  UNL1        0.0994
     24 N         141.6143  145.6142  159.1673 N.ar    1  UNL1       -0.2468
     25 C         141.3495  144.4842  160.1176 C.ar    1  UNL1        0.0736
     26 C         142.0750  144.4215  161.4290 C.3     1  UNL1        0.0535
     27 N         143.2936  139.6216  166.7308 N.pl3   1  UNL1       -0.2602
     28 H         144.0335  139.2886  167.2883 H       1  UNL1        0.1680
     29 N         143.5544  140.0535  165.3182 N.3     1  UNL1       -0.2041
     30 C         143.6300  141.5134  164.9821 C.3     1  UNL1        0.1092
     31 C         143.8908  141.9452  163.5694 C.3     1  UNL1        0.0915
     32 N         144.0761  140.9172  162.4930 N.3     1  UNL1       -0.2681
     33 C         144.0006  139.4573  162.8291 C.3     1  UNL1        0.0915
     34 C         143.7398  139.0254  164.2417 C.3     1  UNL1        0.1092
     35 C         144.3370  141.3490  161.0804 C.3     1  UNL1        0.1043
     36 C         143.8130  140.5314  159.9372 C.3     1  UNL1        0.1544
     37 O         142.3689  140.6310  159.5438 O.3     1  UNL1       -0.3805
     38 H         141.8140  140.2836  160.2596 H       1  UNL1        0.2105
@<TRIPOS>BOND
     1     1     2    1
     2     2     3   ar
     3     3     4   ar
     4     4     8    1
     5     8    10    1
     6    10    11   ar
     7    11    12   ar
     8    12    13   ar
     9    13    15    1
    10    15    16    2
    11    15    17   am
    12    17    19    1
    13    19    20   ar
    14    20    21    1
    15    20    22   ar
    16    22    23   ar
    17    23    24   ar
    18    24    25   ar
    19    25    26    1
    20    13    14   ar
    21     4     5   ar
    22     5     6   ar
    23     6    27    1
    24    27    29    1
    25    29    30    1
    26    30    31    1
    27    31    32    1
    28    32    35    1
    29    35    36    1
    30    36    37    1
    31    32    33    1
    32    33    34    1
    33     6     7   ar
    34     7     2   ar
    35    14    10   ar
    36    34    29    1
    37    25    19   ar
    38     8     9    1
    39    17    18    1
    40    27    28    1
    41    37    38    1
@<TRIPOS>MOLECULE
*****
 38 41 0 0 0
SMALL
GASTEIGER

@<TRIPOS>ATOM
      1 C         143.0275  137.6714  156.3714 C.3     1  UNL1        0.0738
      2 C         142.8419  138.3952  157.6720 C.ar    1  UNL1        0.1424
      3 N         142.9446  137.6469  158.9680 N.ar    1  UNL1       -0.2158
      4 C         142.7589  138.3707  160.2686 C.ar    1  UNL1        0.1377
      5 C         142.4705  139.8427  160.2733 C.ar    1  UNL1        0.0698
      6 C         142.3678  140.5909  158.9774 C.ar    1  UNL1        0.1459
      7 N         142.5535  139.8671  157.6767 N.ar    1  UNL1       -0.2149
      8 N         142.8616  137.6224  161.5646 N.pl3   1  UNL1       -0.2780
      9 H         142.6974  136.6519  161.5871 H       1  UNL1        0.1555
     10 C         143.2145  138.3527  162.8264 C.ar    1  UNL1        0.1648
     11 N         144.4650  139.1457  163.0658 N.ar    1  UNL1       -0.2223
     12 C         144.4023  139.7014  164.4577 C.ar    1  UNL1        0.1119
     13 C         143.1130  139.2518  165.0785 C.ar    1  UNL1        0.1047
     14 S         142.3789  138.4183  164.0704 S.2     1  UNL1       -0.0468
     15 C         142.6406  139.5784  166.4642 C.2     1  UNL1        0.2572
     16 O         143.1488  138.7904  167.6350 O.2     1  UNL1       -0.2692
     17 N         141.6600  140.6929  166.6792 N.am    1  UNL1       -0.2783
     18 H         141.3264  141.2101  165.9108 H       1  UNL1        0.1552
     19 C         141.1876  141.0195  168.0649 C.ar    1  UNL1        0.0750
     20 C         139.8771  140.4809  168.5570 C.ar    1  UNL1        0.0738
     21 CL        139.0388  139.6156  167.6634 Cl      1  UNL1       -0.0809
     22 C         139.4048  140.8075  169.9428 C.ar    1  UNL1        0.0333
     23 C         140.2430  141.6727  170.8364 C.ar    1  UNL1        0.0994
     24 N         141.5537  142.2114  170.3443 N.ar    1  UNL1       -0.2468
     25 C         142.0259  141.8848  168.9586 C.ar    1  UNL1        0.0736
     26 C         143.3365  142.4235  168.4665 C.3     1  UNL1        0.0535
     27 N         142.0794  142.0629  158.9820 N.pl3   1  UNL1       -0.2602
     28 H         142.3228  142.6147  158.2039 H       1  UNL1        0.1680
     29 N         141.4200  142.6943  160.1722 N.3     1  UNL1       -0.2041
     30 C         139.9673  142.4410  160.4470 C.3     1  UNL1        0.1092
     31 C         139.3080  143.0723  161.6373 C.3     1  UNL1        0.0915
     32 N         140.1013  143.9570  162.5527 N.3     1  UNL1       -0.2681
     33 C         141.5540  144.2103  162.2779 C.3     1  UNL1        0.0915
     34 C         142.2133  143.5789  161.0877 C.3     1  UNL1        0.1092
     35 C         139.4419  144.5883  163.7429 C.3     1  UNL1        0.1043
     36 C         139.6019  143.9746  165.1023 C.3     1  UNL1        0.1544
     37 O         139.5414  142.4845  165.2642 O.3     1  UNL1       -0.3805
     38 H         138.6488  142.1718  165.0489 H       1  UNL1        0.2105
@<TRIPOS>BOND
     1     1     2    1
     2     2     3   ar
     3     3     4   ar
     4     4     8    1
     5     8    10    1
     6    10    11   ar
     7    11    12   ar
     8    12    13   ar
     9    13    15    1
    10    15    16    2
    11    15    17   am
    12    17    19    1
    13    19    20   ar
    14    20    21    1
    15    20    22   ar
    16    22    23   ar
    17    23    24   ar
    18    24    25   ar
    19    25    26    1
    20    13    14   ar
    21     4     5   ar
    22     5     6   ar
    23     6    27    1
    24    27    29    1
    25    29    30    1
    26    30    31    1
    27    31    32    1
    28    32    35    1
    29    35    36    1
    30    36    37    1
    31    32    33    1
    32    33    34    1
    33     6     7   ar
    34     7     2   ar
    35    14    10   ar
    36    34    29    1
    37    25    19   ar
    38     8     9    1
    39    17    18    1
    40    27    28    1
    41    37    38    1
@<TRIPOS>MOLECULE
*****
 38 41 0 0 0
SMALL
GASTEIGER

@<TRIPOS>ATOM
      1 C         140.0282  140.7242  158.8107 C.3     1  UNL1        0.0738
      2 C         140.9985  139.6033  159.0394 C.ar    1  UNL1        0.1424
      3 N         141.3220  139.1647  160.4368 N.ar    1  UNL1       -0.2158
      4 C         142.2923  138.0439  160.6654 C.ar    1  UNL1        0.1377
      5 C         142.9391  137.3617  159.4966 C.ar    1  UNL1        0.0698
      6 C         142.6156  137.8003  158.0992 C.ar    1  UNL1        0.1459
      7 N         141.6453  138.9211  157.8705 N.ar    1  UNL1       -0.2149
      8 N         142.6158  137.6053  162.0630 N.pl3   1  UNL1       -0.2780
      9 H         143.4689  137.1514  162.2514 H       1  UNL1        0.1555
     10 C         141.6396  137.8583  163.1733 C.ar    1  UNL1        0.1648
     11 N         140.2899  137.2212  163.3229 N.ar    1  UNL1       -0.2223
     12 C         139.6577  137.7619  164.5711 C.ar    1  UNL1        0.1119
     13 C         140.6167  138.7333  165.1930 C.ar    1  UNL1        0.1047
     14 S         141.8416  138.7928  164.3291 S.2     1  UNL1       -0.0468
     15 C         140.3906  139.5090  166.4568 C.2     1  UNL1        0.2572
     16 O         139.0484  139.4782  167.1256 O.2     1  UNL1       -0.2692
     17 N         141.5068  140.3153  167.0518 N.am    1  UNL1       -0.2783
     18 H         142.3878  140.3355  166.6128 H       1  UNL1        0.1552
     19 C         141.2807  141.0910  168.3156 C.ar    1  UNL1        0.0750
     20 C         140.6581  142.4543  168.2576 C.ar    1  UNL1        0.0738
     21 CL        140.2614  143.0422  166.9358 Cl      1  UNL1       -0.0809
     22 C         140.4320  143.2300  169.5215 C.ar    1  UNL1        0.0333
     23 C         140.8286  142.6422  170.8433 C.ar    1  UNL1        0.0994
     24 N         141.4513  141.2788  170.9013 N.ar    1  UNL1       -0.2468
     25 C         141.6773  140.5032  169.6374 C.ar    1  UNL1        0.0736
     26 C         142.3000  139.1398  169.6954 C.3     1  UNL1        0.0535
     27 N         143.2624  137.1180  156.9302 N.pl3   1  UNL1       -0.2602
     28 H         143.9584  137.5832  156.4121 H       1  UNL1        0.1680
     29 N         142.8488  135.7271  156.5508 N.3     1  UNL1       -0.2041
     30 C         141.7780  135.5175  155.5214 C.3     1  UNL1        0.1092
     31 C         141.3644  134.1264  155.1420 C.3     1  UNL1        0.0915
     32 N         142.0216  132.9450  155.7918 N.3     1  UNL1       -0.2681
     33 C         143.0923  133.1546  156.8212 C.3     1  UNL1        0.0915
     34 C         143.5059  134.5455  157.2006 C.3     1  UNL1        0.1092
     35 C         141.6079  131.5540  155.4124 C.3     1  UNL1        0.1043
     36 C         142.4303  130.3801  155.8546 C.3     1  UNL1        0.1544
     37 O         143.6418  129.9743  155.0686 O.3     1  UNL1       -0.3805
     38 H         143.3685  129.6603  154.1925 H       1  UNL1        0.2105
@<TRIPOS>BOND
     1     1     2    1
     2     2     3   ar
     3     3     4   ar
     4     4     8    1
     5     8    10    1
     6    10    11   ar
     7    11    12   ar
     8    12    13   ar
     9    13    15    1
    10    15    16    2
    11    15    17   am
    12    17    19    1
    13    19    20   ar
    14    20    21    1
    15    20    22   ar
    16    22    23   ar
    17    23    24   ar
    18    24    25   ar
    19    25    26    1
    20    13    14   ar
    21     4     5   ar
    22     5     6   ar
    23     6    27    1
    24    27    29    1
    25    29    30    1
    26    30    31    1
    27    31    32    1
    28    32    35    1
    29    35    36    1
    30    36    37    1
    31    32    33    1
    32    33    34    1
    33     6     7   ar
    34     7     2   ar
    35    14    10   ar
    36    34    29    1
    37    25    19   ar
    38     8     9    1
    39    17    18    1
    40    27    28    1
    41    37    38    1
