@<TRIPOS>MOLECULE
*****
 30 34 0 0 0
SMALL
GASTEIGER

@<TRIPOS>ATOM
      1 O         140.1642  139.6311  162.3123 O.2     1  UNL1       -0.2649
      2 C         141.4371  139.1613  161.6727 C.ar    1  UNL1        0.2837
      3 C         141.4343  138.7032  160.2443 C.ar    1  UNL1        0.1393
      4 C         140.3388  138.6032  159.2246 C.ar    1  UNL1        0.0271
      5 C         140.9347  138.0717  157.9548 C.ar    1  UNL1        0.0385
      6 C         142.3985  137.8431  158.1898 C.ar    1  UNL1        0.1021
      7 N         142.7072  138.2334  159.6048 N.ar    1  UNL1       -0.2221
      8 N         143.9830  138.2217  160.3937 N.ar    1  UNL1       -0.1435
      9 C         143.9858  138.6798  161.8220 C.ar    1  UNL1        0.2064
     10 N         142.7130  139.1496  162.4615 N.ar    1  UNL1       -0.2526
     11 C         140.1965  137.8140  156.6747 C.ar    1  UNL1        0.0829
     12 C         140.6622  136.7329  155.7450 C.ar    1  UNL1        0.0201
     13 C         139.9239  136.4752  154.4649 C.ar    1  UNL1        0.0145
     14 C         138.7200  137.2985  154.1145 C.ar    1  UNL1        0.0768
     15 CL        137.9818  137.0408  152.8344 Cl      1  UNL1       -0.0806
     16 C         138.2544  138.3796  155.0443 C.ar    1  UNL1        0.1101
     17 N         138.9926  138.6373  156.3244 N.ar    1  UNL1       -0.2429
     18 C         142.7159  139.6077  163.8899 C.ar    1  UNL1        0.0876
     19 C         142.6601  138.6010  165.0005 C.ar    1  UNL1        0.0221
     20 C         142.6630  139.0590  166.4288 C.ar    1  UNL1        0.0358
     21 C         142.7216  140.5238  166.7465 C.ar    1  UNL1        0.1319
     22 N         142.7773  141.5305  165.6359 N.ar    1  UNL1       -0.2276
     23 C         142.7745  141.0725  164.2076 C.ar    1  UNL1        0.1179
     24 N         142.7244  140.9820  168.1748 N.pl3   1  UNL1       -0.2907
     25 C         143.1398  142.3373  168.6652 C.3     1  UNL1        0.0948
     26 C         142.9845  142.3582  170.1570 C.3     1  UNL1        0.0524
     27 C         142.4731  141.0157  170.5886 C.3     1  UNL1        0.1319
     28 O         142.1748  140.5972  171.9979 O.3     1  UNL1       -0.3827
     29 C         142.3124  140.1652  169.3635 C.3     1  UNL1        0.1213
     30 H         141.8573  139.6807  172.0026 H       1  UNL1        0.2104
@<TRIPOS>BOND
     1     1     2    2
     2     2     3   ar
     3     3     4   ar
     4     4     5   ar
     5     5    11    1
     6    11    12   ar
     7    12    13   ar
     8    13    14   ar
     9    14    15    1
    10    14    16   ar
    11    16    17   ar
    12     5     6   ar
    13     6     7   ar
    14     7     8   ar
    15     8     9   ar
    16     9    10   ar
    17    10    18    1
    18    18    19   ar
    19    19    20   ar
    20    20    21   ar
    21    21    24    1
    22    24    25    1
    23    25    26    1
    24    26    27    1
    25    27    28    1
    26    27    29    1
    27    21    22   ar
    28    22    23   ar
    29    10     2   ar
    30    23    18   ar
    31     7     3   ar
    32    29    24    1
    33    17    11   ar
    34    28    30    1
@<TRIPOS>MOLECULE
*****
 30 34 0 0 0
SMALL
GASTEIGER

@<TRIPOS>ATOM
      1 O         141.2192  145.4972  162.5139 O.2     1  UNL1       -0.2649
      2 C         140.7052  144.3320  161.7214 C.ar    1  UNL1        0.2837
      3 C         140.4292  144.4854  160.2550 C.ar    1  UNL1        0.1393
      4 C         140.5673  145.6540  159.3247 C.ar    1  UNL1        0.0271
      5 C         140.1386  145.2109  157.9573 C.ar    1  UNL1        0.0385
      6 C         139.7356  143.7685  158.0425 C.ar    1  UNL1        0.1021
      7 N         139.9152  143.3202  159.4626 N.ar    1  UNL1       -0.2221
      8 N         139.6771  142.0014  160.1365 N.ar    1  UNL1       -0.1435
      9 C         139.9530  141.8479  161.6029 C.ar    1  UNL1        0.2064
     10 N         140.4670  143.0131  162.3953 N.ar    1  UNL1       -0.2526
     11 C         140.1167  146.0609  156.7216 C.ar    1  UNL1        0.0829
     12 C         139.2392  147.2760  156.6625 C.ar    1  UNL1        0.0201
     13 C         139.2174  148.1259  155.4267 C.ar    1  UNL1        0.0145
     14 C         140.0731  147.7608  154.2500 C.ar    1  UNL1        0.0768
     15 CL        140.0512  148.6108  153.0143 Cl      1  UNL1       -0.0806
     16 C         140.9506  146.5457  154.3091 C.ar    1  UNL1        0.1101
     17 N         140.9724  145.6958  155.5449 N.ar    1  UNL1       -0.2429
     18 C         140.7430  142.8596  163.8618 C.ar    1  UNL1        0.0876
     19 C         139.6760  143.1869  164.8640 C.ar    1  UNL1        0.0221
     20 C         139.9519  143.0334  166.3304 C.ar    1  UNL1        0.0358
     21 C         141.2948  142.5526  166.7946 C.ar    1  UNL1        0.1319
     22 N         142.3618  142.2253  165.7923 N.ar    1  UNL1       -0.2276
     23 C         142.0859  142.3788  164.3259 C.ar    1  UNL1        0.1179
     24 N         141.5708  142.3991  168.2609 N.pl3   1  UNL1       -0.2907
     25 C         142.9193  142.2062  168.8888 C.3     1  UNL1        0.0948
     26 C         142.7287  142.0994  170.3729 C.3     1  UNL1        0.0524
     27 C         141.2623  142.2262  170.6620 C.3     1  UNL1        0.1319
     28 O         140.6235  142.1766  172.0184 O.3     1  UNL1       -0.3827
     29 C         140.5467  142.4114  169.3568 C.3     1  UNL1        0.1213
     30 H         139.6637  142.2835  171.9279 H       1  UNL1        0.2104
@<TRIPOS>BOND
     1     1     2    2
     2     2     3   ar
     3     3     4   ar
     4     4     5   ar
     5     5    11    1
     6    11    12   ar
     7    12    13   ar
     8    13    14   ar
     9    14    15    1
    10    14    16   ar
    11    16    17   ar
    12     5     6   ar
    13     6     7   ar
    14     7     8   ar
    15     8     9   ar
    16     9    10   ar
    17    10    18    1
    18    18    19   ar
    19    19    20   ar
    20    20    21   ar
    21    21    24    1
    22    24    25    1
    23    25    26    1
    24    26    27    1
    25    27    28    1
    26    27    29    1
    27    21    22   ar
    28    22    23   ar
    29    10     2   ar
    30    23    18   ar
    31     7     3   ar
    32    29    24    1
    33    17    11   ar
    34    28    30    1
@<TRIPOS>MOLECULE
*****
 30 34 0 0 0
SMALL
GASTEIGER

@<TRIPOS>ATOM
      1 O         141.4555  138.7185  162.6750 O.2     1  UNL1       -0.2649
      2 C         142.1987  139.6854  161.8016 C.ar    1  UNL1        0.2837
      3 C         142.4807  139.3389  160.3697 C.ar    1  UNL1        0.1393
      4 C         142.1525  138.1285  159.5466 C.ar    1  UNL1        0.0271
      5 C         142.6929  138.3474  158.1646 C.ar    1  UNL1        0.0385
      6 C         143.3551  139.6930  158.1335 C.ar    1  UNL1        0.1021
      7 N         143.2239  140.3058  159.4963 N.ar    1  UNL1       -0.2221
      8 N         143.6851  141.6192  160.0549 N.ar    1  UNL1       -0.1435
      9 C         143.4032  141.9658  161.4868 C.ar    1  UNL1        0.2064
     10 N         142.6600  140.9990  162.3601 N.ar    1  UNL1       -0.2526
     11 C         142.5894  137.3890  157.0154 C.ar    1  UNL1        0.0829
     12 C         141.2423  136.9386  156.5334 C.ar    1  UNL1        0.0201
     13 C         141.1388  135.9801  155.3842 C.ar    1  UNL1        0.0145
     14 C         142.3825  135.4721  154.7169 C.ar    1  UNL1        0.0768
     15 CL        142.2789  134.5136  153.5677 Cl      1  UNL1       -0.0806
     16 C         143.7296  135.9224  155.1989 C.ar    1  UNL1        0.1101
     17 N         143.8331  136.8809  156.3481 N.ar    1  UNL1       -0.2429
     18 C         142.3781  141.3456  163.7921 C.ar    1  UNL1        0.0876
     19 C         143.2430  140.7874  164.8831 C.ar    1  UNL1        0.0221
     20 C         142.9610  141.1340  166.3150 C.ar    1  UNL1        0.0358
     21 C         141.8142  142.0387  166.6559 C.ar    1  UNL1        0.1319
     22 N         140.9493  142.5969  165.5648 N.ar    1  UNL1       -0.2276
     23 C         141.2313  142.2503  164.1329 C.ar    1  UNL1        0.1179
     24 N         141.5322  142.3853  168.0878 N.pl3   1  UNL1       -0.2907
     25 C         140.3656  143.1845  168.5882 C.3     1  UNL1        0.0948
     26 C         140.4798  143.2867  170.0804 C.3     1  UNL1        0.0524
     27 C         141.7169  142.5507  170.5021 C.3     1  UNL1        0.1319
     28 O         142.2160  142.3985  171.9085 O.3     1  UNL1       -0.3827
     29 C         142.3673  141.9937  169.2706 C.3     1  UNL1        0.1213
     30 H         143.0348  141.8785  171.9065 H       1  UNL1        0.2104
@<TRIPOS>BOND
     1     1     2    2
     2     2     3   ar
     3     3     4   ar
     4     4     5   ar
     5     5    11    1
     6    11    12   ar
     7    12    13   ar
     8    13    14   ar
     9    14    15    1
    10    14    16   ar
    11    16    17   ar
    12     5     6   ar
    13     6     7   ar
    14     7     8   ar
    15     8     9   ar
    16     9    10   ar
    17    10    18    1
    18    18    19   ar
    19    19    20   ar
    20    20    21   ar
    21    21    24    1
    22    24    25    1
    23    25    26    1
    24    26    27    1
    25    27    28    1
    26    27    29    1
    27    21    22   ar
    28    22    23   ar
    29    10     2   ar
    30    23    18   ar
    31     7     3   ar
    32    29    24    1
    33    17    11   ar
    34    28    30    1
@<TRIPOS>MOLECULE
*****
 30 34 0 0 0
SMALL
GASTEIGER

@<TRIPOS>ATOM
      1 O         138.9562  139.2839  161.9693 O.2     1  UNL1       -0.2649
      2 C         138.9653  140.7191  161.5331 C.ar    1  UNL1        0.2837
      3 C         138.5481  141.0819  160.1387 C.ar    1  UNL1        0.1393
      4 C         138.0820  140.2487  158.9817 C.ar    1  UNL1        0.0271
      5 C         137.8031  141.1690  157.8305 C.ar    1  UNL1        0.0385
      6 C         138.0967  142.5709  158.2760 C.ar    1  UNL1        0.1021
      7 N         138.5572  142.5170  159.7026 N.ar    1  UNL1       -0.2221
      8 N         138.9835  143.5894  160.6608 N.ar    1  UNL1       -0.1435
      9 C         139.4008  143.2266  162.0552 C.ar    1  UNL1        0.2064
     10 N         139.3917  141.7915  162.4913 N.ar    1  UNL1       -0.2526
     11 C         137.3160  140.7593  156.4722 C.ar    1  UNL1        0.0829
     12 C         136.3045  141.6014  155.7527 C.ar    1  UNL1        0.0201
     13 C         135.8175  141.1916  154.3944 C.ar    1  UNL1        0.0145
     14 C         136.3419  139.9399  153.7556 C.ar    1  UNL1        0.0768
     15 CL        135.8549  139.5302  152.3974 Cl      1  UNL1       -0.0806
     16 C         137.3534  139.0978  154.4752 C.ar    1  UNL1        0.1101
     17 N         137.8405  139.5075  155.8335 N.ar    1  UNL1       -0.2429
     18 C         139.8090  141.4287  163.8858 C.ar    1  UNL1        0.0876
     19 C         138.7757  141.0343  164.8991 C.ar    1  UNL1        0.0221
     20 C         139.1930  140.6715  166.2935 C.ar    1  UNL1        0.0358
     21 C         140.6434  140.7032  166.6745 C.ar    1  UNL1        0.1319
     22 N         141.6766  141.0976  165.6611 N.ar    1  UNL1       -0.2276
     23 C         141.2594  141.4604  164.2668 C.ar    1  UNL1        0.1179
     24 N         141.0607  140.3404  168.0688 N.pl3   1  UNL1       -0.2907
     25 C         142.2816  139.5557  168.4478 C.3     1  UNL1        0.0948
     26 C         142.3058  139.4290  169.9423 C.3     1  UNL1        0.0524
     27 C         141.0999  140.1354  170.4869 C.3     1  UNL1        0.1319
     28 O         140.7286  140.2573  171.9352 O.3     1  UNL1       -0.3827
     29 C         140.3304  140.6987  169.3291 C.3     1  UNL1        0.1213
     30 H         139.9043  140.7620  172.0163 H       1  UNL1        0.2104
@<TRIPOS>BOND
     1     1     2    2
     2     2     3   ar
     3     3     4   ar
     4     4     5   ar
     5     5    11    1
     6    11    12   ar
     7    12    13   ar
     8    13    14   ar
     9    14    15    1
    10    14    16   ar
    11    16    17   ar
    12     5     6   ar
    13     6     7   ar
    14     7     8   ar
    15     8     9   ar
    16     9    10   ar
    17    10    18    1
    18    18    19   ar
    19    19    20   ar
    20    20    21   ar
    21    21    24    1
    22    24    25    1
    23    25    26    1
    24    26    27    1
    25    27    28    1
    26    27    29    1
    27    21    22   ar
    28    22    23   ar
    29    10     2   ar
    30    23    18   ar
    31     7     3   ar
    32    29    24    1
    33    17    11   ar
    34    28    30    1
@<TRIPOS>MOLECULE
*****
 30 34 0 0 0
SMALL
GASTEIGER

@<TRIPOS>ATOM
      1 O         144.2013  143.5152  162.1159 O.2     1  UNL1       -0.2649
      2 C         143.7870  142.2094  161.5049 C.ar    1  UNL1        0.2837
      3 C         144.1288  141.9079  160.0759 C.ar    1  UNL1        0.1393
      4 C         144.8598  142.6974  159.0307 C.ar    1  UNL1        0.0271
      5 C         144.8972  141.8794  157.7739 C.ar    1  UNL1        0.0385
      6 C         144.1894  140.5844  158.0423 C.ar    1  UNL1        0.1021
      7 N         143.7145  140.6020  159.4650 N.ar    1  UNL1       -0.2221
      8 N         142.9583  139.5977  160.2833 N.ar    1  UNL1       -0.1435
      9 C         142.6165  139.8992  161.7123 C.ar    1  UNL1        0.2064
     10 N         143.0308  141.2049  162.3231 N.ar    1  UNL1       -0.2526
     11 C         145.5311  142.2852  156.4764 C.ar    1  UNL1        0.0829
     12 C         147.0240  142.2645  156.3322 C.ar    1  UNL1        0.0201
     13 C         147.6579  142.6703  155.0347 C.ar    1  UNL1        0.0145
     14 C         146.7989  143.0968  153.8813 C.ar    1  UNL1        0.0768
     15 CL        147.4328  143.5026  152.5839 Cl      1  UNL1       -0.0806
     16 C         145.3060  143.1176  154.0255 C.ar    1  UNL1        0.1101
     17 N         144.6721  142.7118  155.3230 N.ar    1  UNL1       -0.2429
     18 C         142.6889  141.5064  163.7523 C.ar    1  UNL1        0.0876
     19 C         141.5622  142.4435  164.0723 C.ar    1  UNL1        0.0221
     20 C         141.2203  142.7450  165.5013 C.ar    1  UNL1        0.0358
     21 C         142.0052  142.1094  166.6104 C.ar    1  UNL1        0.1319
     22 N         143.1320  141.1723  166.2904 N.ar    1  UNL1       -0.2276
     23 C         143.4738  140.8709  164.8613 C.ar    1  UNL1        0.1179
     24 N         141.6634  142.4108  168.0395 N.pl3   1  UNL1       -0.2907
     25 C         140.4414  143.1361  168.5197 C.3     1  UNL1        0.0948
     26 C         140.5064  143.2134  170.0163 C.3     1  UNL1        0.0524
     27 C         141.7686  142.5359  170.4610 C.3     1  UNL1        0.1319
     28 O         142.2341  142.3814  171.8786 O.3     1  UNL1       -0.3827
     29 C         142.4837  142.0398  169.2392 C.3     1  UNL1        0.1213
     30 H         143.0795  141.9059  171.8914 H       1  UNL1        0.2104
@<TRIPOS>BOND
     1     1     2    2
     2     2     3   ar
     3     3     4   ar
     4     4     5   ar
     5     5    11    1
     6    11    12   ar
     7    12    13   ar
     8    13    14   ar
     9    14    15    1
    10    14    16   ar
    11    16    17   ar
    12     5     6   ar
    13     6     7   ar
    14     7     8   ar
    15     8     9   ar
    16     9    10   ar
    17    10    18    1
    18    18    19   ar
    19    19    20   ar
    20    20    21   ar
    21    21    24    1
    22    24    25    1
    23    25    26    1
    24    26    27    1
    25    27    28    1
    26    27    29    1
    27    21    22   ar
    28    22    23   ar
    29    10     2   ar
    30    23    18   ar
    31     7     3   ar
    32    29    24    1
    33    17    11   ar
    34    28    30    1
@<TRIPOS>MOLECULE
*****
 30 34 0 0 0
SMALL
GASTEIGER

@<TRIPOS>ATOM
      1 O         142.0978  142.1422  161.6825 O.2     1  UNL1       -0.2649
      2 C         141.2154  143.3533  161.6137 C.ar    1  UNL1        0.2837
      3 C         141.0735  144.1056  160.3238 C.ar    1  UNL1        0.1393
      4 C         141.6749  143.8926  158.9663 C.ar    1  UNL1        0.0271
      5 C         141.1642  144.9720  158.0585 C.ar    1  UNL1        0.0385
      6 C         140.2471  145.8521  158.8550 C.ar    1  UNL1        0.1021
      7 N         140.1911  145.3167  160.2551 N.ar    1  UNL1       -0.2221
      8 N         139.4506  145.7755  161.4762 N.ar    1  UNL1       -0.1435
      9 C         139.5925  145.0231  162.7661 C.ar    1  UNL1        0.2064
     10 N         140.4749  143.8121  162.8349 N.ar    1  UNL1       -0.2526
     11 C         141.5097  145.1415  156.6087 C.ar    1  UNL1        0.0829
     12 C         140.6927  146.0558  155.7449 C.ar    1  UNL1        0.0201
     13 C         141.0383  146.2253  154.2951 C.ar    1  UNL1        0.0145
     14 C         142.2010  145.4804  153.7091 C.ar    1  UNL1        0.0768
     15 CL        142.5466  145.6499  152.2594 Cl      1  UNL1       -0.0806
     16 C         143.0181  144.5660  154.5730 C.ar    1  UNL1        0.1101
     17 N         142.6724  144.3966  156.0228 N.ar    1  UNL1       -0.2429
     18 C         140.6168  143.0598  164.1249 C.ar    1  UNL1        0.0876
     19 C         141.8579  143.2173  164.9523 C.ar    1  UNL1        0.0221
     20 C         141.9998  142.4650  166.2423 C.ar    1  UNL1        0.0358
     21 C         140.9006  141.5552  166.7047 C.ar    1  UNL1        0.1319
     22 N         139.6594  141.3977  165.8772 N.ar    1  UNL1       -0.2276
     23 C         139.5175  142.1500  164.5873 C.ar    1  UNL1        0.1179
     24 N         141.0424  140.8029  167.9946 N.pl3   1  UNL1       -0.2907
     25 C         142.2720  140.0846  168.4657 C.3     1  UNL1        0.0948
     26 C         141.9690  139.4745  169.8022 C.3     1  UNL1        0.0524
     27 C         140.5521  139.8158  170.1569 C.3     1  UNL1        0.1319
     28 O         139.8339  139.4078  171.4091 O.3     1  UNL1       -0.3827
     29 C         139.9794  140.6368  169.0398 C.3     1  UNL1        0.1213
     30 H         138.9294  139.7578  171.3917 H       1  UNL1        0.2104
@<TRIPOS>BOND
     1     1     2    2
     2     2     3   ar
     3     3     4   ar
     4     4     5   ar
     5     5    11    1
     6    11    12   ar
     7    12    13   ar
     8    13    14   ar
     9    14    15    1
    10    14    16   ar
    11    16    17   ar
    12     5     6   ar
    13     6     7   ar
    14     7     8   ar
    15     8     9   ar
    16     9    10   ar
    17    10    18    1
    18    18    19   ar
    19    19    20   ar
    20    20    21   ar
    21    21    24    1
    22    24    25    1
    23    25    26    1
    24    26    27    1
    25    27    28    1
    26    27    29    1
    27    21    22   ar
    28    22    23   ar
    29    10     2   ar
    30    23    18   ar
    31     7     3   ar
    32    29    24    1
    33    17    11   ar
    34    28    30    1
@<TRIPOS>MOLECULE
*****
 30 34 0 0 0
SMALL
GASTEIGER

@<TRIPOS>ATOM
      1 O         141.3515  139.0174  162.6809 O.2     1  UNL1       -0.2649
      2 C         140.3227  139.8683  161.9971 C.ar    1  UNL1        0.2837
      3 C         139.9638  139.6055  160.5646 C.ar    1  UNL1        0.1393
      4 C         140.4525  138.5866  159.5781 C.ar    1  UNL1        0.0271
      5 C         139.7257  138.8079  158.2848 C.ar    1  UNL1        0.0385
      6 C         138.7878  139.9635  158.4719 C.ar    1  UNL1        0.1021
      7 N         138.9350  140.4564  159.8809 N.ar    1  UNL1       -0.2221
      8 N         138.2650  141.5702  160.6297 N.ar    1  UNL1       -0.1435
      9 C         138.6240  141.8330  162.0622 C.ar    1  UNL1        0.2064
     10 N         139.6527  140.9822  162.7459 N.ar    1  UNL1       -0.2526
     11 C         139.9053  138.0131  157.0254 C.ar    1  UNL1        0.0829
     12 C         141.1867  137.2722  156.7823 C.ar    1  UNL1        0.0201
     13 C         141.3661  136.4774  155.5229 C.ar    1  UNL1        0.0145
     14 C         140.2643  136.4235  154.5065 C.ar    1  UNL1        0.0768
     15 CL        140.4438  135.6287  153.2471 Cl      1  UNL1       -0.0806
     16 C         138.9829  137.1644  154.7496 C.ar    1  UNL1        0.1101
     17 N         138.8034  137.9592  156.0090 N.ar    1  UNL1       -0.2429
     18 C         140.0116  141.2450  164.1785 C.ar    1  UNL1        0.0876
     19 C         141.0503  142.2737  164.5148 C.ar    1  UNL1        0.0221
     20 C         141.4092  142.5366  165.9473 C.ar    1  UNL1        0.0358
     21 C         140.7295  141.7708  167.0434 C.ar    1  UNL1        0.1319
     22 N         139.6908  140.7421  166.7071 N.ar    1  UNL1       -0.2276
     23 C         139.3319  140.4793  165.2746 C.ar    1  UNL1        0.1179
     24 N         141.0883  142.0336  168.4759 N.pl3   1  UNL1       -0.2907
     25 C         142.4031  142.5565  168.9739 C.3     1  UNL1        0.0948
     26 C         142.3227  142.6657  170.4678 C.3     1  UNL1        0.0524
     27 C         140.9583  142.2102  170.8931 C.3     1  UNL1        0.1319
     28 O         140.4465  142.1551  172.3020 O.3     1  UNL1       -0.3827
     29 C         140.1954  141.8195  169.6620 C.3     1  UNL1        0.1213
     30 H         139.5346  141.8244  172.3021 H       1  UNL1        0.2104
@<TRIPOS>BOND
     1     1     2    2
     2     2     3   ar
     3     3     4   ar
     4     4     5   ar
     5     5    11    1
     6    11    12   ar
     7    12    13   ar
     8    13    14   ar
     9    14    15    1
    10    14    16   ar
    11    16    17   ar
    12     5     6   ar
    13     6     7   ar
    14     7     8   ar
    15     8     9   ar
    16     9    10   ar
    17    10    18    1
    18    18    19   ar
    19    19    20   ar
    20    20    21   ar
    21    21    24    1
    22    24    25    1
    23    25    26    1
    24    26    27    1
    25    27    28    1
    26    27    29    1
    27    21    22   ar
    28    22    23   ar
    29    10     2   ar
    30    23    18   ar
    31     7     3   ar
    32    29    24    1
    33    17    11   ar
    34    28    30    1
@<TRIPOS>MOLECULE
*****
 30 34 0 0 0
SMALL
GASTEIGER

@<TRIPOS>ATOM
      1 O         143.4427  140.6590  162.4180 O.2     1  UNL1       -0.2649
      2 C         142.9394  141.9336  161.8081 C.ar    1  UNL1        0.2837
      3 C         143.2716  142.2660  160.3836 C.ar    1  UNL1        0.1393
      4 C         144.0684  141.5371  159.3426 C.ar    1  UNL1        0.0271
      5 C         144.0575  142.3613  158.0894 C.ar    1  UNL1        0.0385
      6 C         143.2539  143.5996  158.3559 C.ar    1  UNL1        0.1021
      7 N         142.7682  143.5406  159.7738 N.ar    1  UNL1       -0.2221
      8 N         141.9326  144.4830  160.5885 N.ar    1  UNL1       -0.1435
      9 C         141.6003  144.1506  162.0130 C.ar    1  UNL1        0.2064
     10 N         142.1037  142.8761  162.6228 N.ar    1  UNL1       -0.2526
     11 C         144.7318  142.0091  156.7966 C.ar    1  UNL1        0.0829
     12 C         146.2120  142.1997  156.6465 C.ar    1  UNL1        0.0201
     13 C         146.8862  141.8475  155.3536 C.ar    1  UNL1        0.0145
     14 C         146.0802  141.3047  154.2109 C.ar    1  UNL1        0.0768
     15 CL        146.7545  140.9526  152.9181 Cl      1  UNL1       -0.0806
     16 C         144.6000  141.1141  154.3610 C.ar    1  UNL1        0.1101
     17 N         143.9258  141.4663  155.6539 N.ar    1  UNL1       -0.2429
     18 C         141.7714  142.5437  164.0474 C.ar    1  UNL1        0.0876
     19 C         142.8419  142.5884  165.0972 C.ar    1  UNL1        0.0221
     20 C         142.5097  142.2561  166.5217 C.ar    1  UNL1        0.0358
     21 C         141.1070  141.8791  166.8963 C.ar    1  UNL1        0.1319
     22 N         140.0366  141.8344  165.8465 N.ar    1  UNL1       -0.2276
     23 C         140.3688  142.1667  164.4220 C.ar    1  UNL1        0.1179
     24 N         140.7747  141.5468  168.3208 N.pl3   1  UNL1       -0.2907
     25 C         140.1652  140.2658  168.8082 C.3     1  UNL1        0.0948
     26 C         140.0074  140.3644  170.2966 C.3     1  UNL1        0.0524
     27 C         140.5193  141.7064  170.7291 C.3     1  UNL1        0.1319
     28 O         140.5515  142.2264  172.1357 O.3     1  UNL1       -0.3827
     29 C         140.9936  142.4371  169.5079 C.3     1  UNL1        0.1213
     30 H         140.9300  143.1195  172.1417 H       1  UNL1        0.2104
@<TRIPOS>BOND
     1     1     2    2
     2     2     3   ar
     3     3     4   ar
     4     4     5   ar
     5     5    11    1
     6    11    12   ar
     7    12    13   ar
     8    13    14   ar
     9    14    15    1
    10    14    16   ar
    11    16    17   ar
    12     5     6   ar
    13     6     7   ar
    14     7     8   ar
    15     8     9   ar
    16     9    10   ar
    17    10    18    1
    18    18    19   ar
    19    19    20   ar
    20    20    21   ar
    21    21    24    1
    22    24    25    1
    23    25    26    1
    24    26    27    1
    25    27    28    1
    26    27    29    1
    27    21    22   ar
    28    22    23   ar
    29    10     2   ar
    30    23    18   ar
    31     7     3   ar
    32    29    24    1
    33    17    11   ar
    34    28    30    1
@<TRIPOS>MOLECULE
*****
 30 34 0 0 0
SMALL
GASTEIGER

@<TRIPOS>ATOM
      1 O         138.8564  141.1125  162.6652 O.2     1  UNL1       -0.2649
      2 C         139.5872  142.2063  161.9443 C.ar    1  UNL1        0.2837
      3 C         139.2471  142.5220  160.5179 C.ar    1  UNL1        0.1393
      4 C         138.2465  141.9302  159.5700 C.ar    1  UNL1        0.0271
      5 C         138.3590  142.6582  158.2634 C.ar    1  UNL1        0.0385
      6 C         139.4290  143.6999  158.4037 C.ar    1  UNL1        0.1021
      7 N         139.9779  143.6158  159.7971 N.ar    1  UNL1       -0.2221
      8 N         141.0488  144.3938  160.5027 N.ar    1  UNL1       -0.1435
      9 C         141.3889  144.0781  161.9291 C.ar    1  UNL1        0.2064
     10 N         140.6581  142.9844  162.6499 N.ar    1  UNL1       -0.2526
     11 C         137.5444  142.3913  157.0324 C.ar    1  UNL1        0.0829
     12 C         136.8716  141.0628  156.8517 C.ar    1  UNL1        0.0201
     13 C         136.0570  140.7960  155.6207 C.ar    1  UNL1        0.0145
     14 C         135.9151  141.8576  154.5705 C.ar    1  UNL1        0.0768
     15 CL        135.1005  141.5907  153.3396 Cl      1  UNL1       -0.0806
     16 C         136.5879  143.1860  154.7512 C.ar    1  UNL1        0.1101
     17 N         137.4025  143.4528  155.9822 N.ar    1  UNL1       -0.2429
     18 C         140.9982  142.6686  164.0764 C.ar    1  UNL1        0.0876
     19 C         140.1532  143.2169  165.1879 C.ar    1  UNL1        0.0221
     20 C         140.4933  142.9012  166.6143 C.ar    1  UNL1        0.0358
     21 C         141.6783  142.0372  166.9292 C.ar    1  UNL1        0.1319
     22 N         142.5233  141.4889  165.8177 N.ar    1  UNL1       -0.2276
     23 C         142.1832  141.8046  164.3913 C.ar    1  UNL1        0.1179
     24 N         142.0184  141.7214  168.3556 N.pl3   1  UNL1       -0.2907
     25 C         141.6670  142.5560  169.5514 C.3     1  UNL1        0.0948
     26 C         142.2011  141.8659  170.7715 C.3     1  UNL1        0.0524
     27 C         142.8826  140.6048  170.3297 C.3     1  UNL1        0.1319
     28 O         143.5584  139.6080  171.2240 O.3     1  UNL1       -0.3827
     29 C         142.7697  140.5155  168.8366 C.3     1  UNL1        0.1213
     30 H         143.9183  138.8843  170.6877 H       1  UNL1        0.2104
@<TRIPOS>BOND
     1     1     2    2
     2     2     3   ar
     3     3     4   ar
     4     4     5   ar
     5     5    11    1
     6    11    12   ar
     7    12    13   ar
     8    13    14   ar
     9    14    15    1
    10    14    16   ar
    11    16    17   ar
    12     5     6   ar
    13     6     7   ar
    14     7     8   ar
    15     8     9   ar
    16     9    10   ar
    17    10    18    1
    18    18    19   ar
    19    19    20   ar
    20    20    21   ar
    21    21    24    1
    22    24    25    1
    23    25    26    1
    24    26    27    1
    25    27    28    1
    26    27    29    1
    27    21    22   ar
    28    22    23   ar
    29    10     2   ar
    30    23    18   ar
    31     7     3   ar
    32    29    24    1
    33    17    11   ar
    34    28    30    1
