@<TRIPOS>MOLECULE
*****
 35 38 0 0 0
SMALL
GASTEIGER

@<TRIPOS>ATOM
      1 N         139.0981  141.0786  165.7650 N.3     1  UNL1       -0.2653
      2 C         140.0444  142.2005  166.0745 C.3     1  UNL1        0.1036
      3 C         140.0944  143.4065  165.1840 C.3     1  UNL1        0.1470
      4 C         140.1444  144.6127  164.2936 C.3     1  UNL1        0.1035
      5 N         139.2481  144.6968  163.0938 N.3     1  UNL1       -0.2685
      6 C         138.3018  143.5748  162.7844 C.3     1  UNL1        0.1035
      7 C         138.2518  142.3687  163.6748 C.3     1  UNL1        0.1470
      8 C         138.2018  141.1627  164.5652 C.3     1  UNL1        0.1036
      9 O         139.1981  143.4907  163.9842 O.3     1  UNL1       -0.3530
     10 C         139.0481  139.8724  166.6555 C.3     1  UNL1        0.1202
     11 C         138.0604  138.7775  166.3804 C.3     1  UNL1        0.2226
     12 O         138.4987  137.5347  165.6638 O.3     1  UNL1       -0.4740
     13 C         141.1809  137.8406  162.0635 C.ar    1  UNL1        0.0686
     14 C         141.7756  137.6596  163.4287 C.ar    1  UNL1        0.0134
     15 C         140.8816  137.5577  164.6288 C.ar    1  UNL1        0.0376
     16 C         139.3928  137.6367  164.4637 C.ar    1  UNL1        0.1387
     17 C         138.7980  137.8176  163.0987 C.ar    1  UNL1        0.0376
     18 C         139.6921  137.9196  161.8985 C.ar    1  UNL1        0.0134
     19 N         142.9691  138.0446  159.6634 N.1     1  UNL1       -0.1908
     20 C         142.0750  137.9426  160.8635 C.1     1  UNL1        0.1004
     21 C         139.2981  145.9029  162.2034 C.3     1  UNL1        0.0737
     22 C         140.1195  145.8752  160.9485 C.3     1  UNL1        0.0362
     23 C         141.0672  144.7400  160.6974 C.3     1  UNL1        0.0929
     24 N         142.4556  144.7829  161.2635 N.3     1  UNL1       -0.1793
     25 H         142.4752  145.5483  161.9374 H       1  UNL1        0.1488
     26 S         143.0197  143.5793  161.9586 S.O2    1  UNL1        0.0624
     27 O         141.7422  142.8349  161.7062 O.2     1  UNL1       -0.1529
     28 O         144.2971  144.3238  162.2111 O.2     1  UNL1       -0.1529
     29 C         143.5837  142.3757  162.6538 C.ar    1  UNL1        0.1492
     30 C         143.9885  141.1708  161.8573 C.ar    1  UNL1        0.0222
     31 C         144.5525  139.9672  162.5524 C.ar    1  UNL1        0.0015
     32 C         144.7117  139.9685  164.0440 C.ar    1  UNL1        0.0024
     33 C         144.3069  141.1734  164.8404 C.ar    1  UNL1        0.0310
     34 C         143.7429  142.3770  164.1453 C.ar    1  UNL1        0.1586
     35 F         143.3381  143.5819  164.9417 F       1  UNL1       -0.2028
@<TRIPOS>BOND
     1    19    20    3
     2    20    13    1
     3    13    14   ar
     4    14    15   ar
     5    15    16   ar
     6    16    12    1
     7    12    11    1
     8    11    10    1
     9    10     1    1
    10     1     2    1
    11     2     3    1
    12     3     4    1
    13     4     5    1
    14     5    21    1
    15    21    22    1
    16    22    23    1
    17    23    24    1
    18    24    26    1
    19    26    27    2
    20    26    28    2
    21    26    29    1
    22    29    30   ar
    23    30    31   ar
    24    31    32   ar
    25    32    33   ar
    26    33    34   ar
    27    34    35    1
    28     5     6    1
    29     6     7    1
    30     7     8    1
    31     7     9    1
    32    16    17   ar
    33    17    18   ar
    34    18    13   ar
    35     8     1    1
    36     9     3    1
    37    34    29   ar
    38    24    25    1
@<TRIPOS>MOLECULE
*****
 35 38 0 0 0
SMALL
GASTEIGER

@<TRIPOS>ATOM
      1 N         144.0461  139.6086  163.8234 N.3     1  UNL1       -0.2653
      2 C         143.0114  139.6092  164.9094 C.3     1  UNL1        0.1036
      3 C         141.6253  139.1114  164.6250 C.3     1  UNL1        0.1470
      4 C         140.2392  138.6137  164.3406 C.3     1  UNL1        0.1035
      5 N         139.8877  138.1154  162.9701 N.3     1  UNL1       -0.2685
      6 C         140.9224  138.1149  161.8841 C.3     1  UNL1        0.1035
      7 C         142.3085  138.6127  162.1685 C.3     1  UNL1        0.1470
      8 C         143.6946  139.1104  162.4529 C.3     1  UNL1        0.1036
      9 O         141.2739  138.6132  163.2545 O.3     1  UNL1       -0.3530
     10 C         145.4322  140.1064  164.1078 C.3     1  UNL1        0.1202
     11 C         145.7710  141.5505  163.8851 C.3     1  UNL1        0.2226
     12 O         145.0299  142.6188  164.6333 O.3     1  UNL1       -0.4740
     13 C         141.6321  144.8072  162.6545 C.ar    1  UNL1        0.0686
     14 C         141.9431  143.3932  162.2623 C.ar    1  UNL1        0.0134
     15 C         143.0757  142.6637  162.9219 C.ar    1  UNL1        0.0376
     16 C         143.8973  143.3482  163.9737 C.ar    1  UNL1        0.1387
     17 C         143.5863  144.7622  164.3660 C.ar    1  UNL1        0.0376
     18 C         142.4537  145.4917  163.7064 C.ar    1  UNL1        0.0134
     19 N         139.3670  146.2661  161.3353 N.1     1  UNL1       -0.1908
     20 C         140.4995  145.5367  161.9949 C.1     1  UNL1        0.1004
     21 C         138.5016  137.6177  162.6857 C.3     1  UNL1        0.0737
     22 C         137.7045  138.2174  161.5654 C.3     1  UNL1        0.0362
     23 C         137.9260  139.6470  161.1688 C.3     1  UNL1        0.0929
     24 N         137.1492  140.7405  161.8401 N.3     1  UNL1       -0.1793
     25 H         136.3542  140.2971  162.3003 H       1  UNL1        0.1488
     26 S         137.8128  141.6111  162.8657 S.O2    1  UNL1        0.0624
     27 O         137.3151  140.7077  163.9547 O.2     1  UNL1       -0.1529
     28 O         138.3106  142.5146  161.7766 O.2     1  UNL1       -0.1529
     29 C         138.4764  142.4817  163.8912 C.ar    1  UNL1        0.1492
     30 C         139.5615  141.9210  164.7619 C.ar    1  UNL1        0.0222
     31 C         140.2251  142.7916  165.7875 C.ar    1  UNL1        0.0015
     32 C         139.8036  144.2228  165.9423 C.ar    1  UNL1        0.0024
     33 C         138.7185  144.7835  165.0714 C.ar    1  UNL1        0.0310
     34 C         138.0549  143.9129  164.0459 C.ar    1  UNL1        0.1586
     35 F         136.9699  144.4736  163.1752 F       1  UNL1       -0.2028
@<TRIPOS>BOND
     1    19    20    3
     2    20    13    1
     3    13    14   ar
     4    14    15   ar
     5    15    16   ar
     6    16    12    1
     7    12    11    1
     8    11    10    1
     9    10     1    1
    10     1     2    1
    11     2     3    1
    12     3     4    1
    13     4     5    1
    14     5    21    1
    15    21    22    1
    16    22    23    1
    17    23    24    1
    18    24    26    1
    19    26    27    2
    20    26    28    2
    21    26    29    1
    22    29    30   ar
    23    30    31   ar
    24    31    32   ar
    25    32    33   ar
    26    33    34   ar
    27    34    35    1
    28     5     6    1
    29     6     7    1
    30     7     8    1
    31     7     9    1
    32    16    17   ar
    33    17    18   ar
    34    18    13   ar
    35     8     1    1
    36     9     3    1
    37    34    29   ar
    38    24    25    1
@<TRIPOS>MOLECULE
*****
 35 38 0 0 0
SMALL
GASTEIGER

@<TRIPOS>ATOM
      1 N         141.6409  144.5083  161.6675 N.3     1  UNL1       -0.2653
      2 C         141.7982  143.1530  161.0443 C.3     1  UNL1        0.1036
      3 C         142.7448  142.1566  161.6452 C.3     1  UNL1        0.1470
      4 C         143.6914  141.1600  162.2460 C.3     1  UNL1        0.1035
      5 N         144.4808  141.5190  163.4699 N.3     1  UNL1       -0.2685
      6 C         144.3236  142.8744  164.0931 C.3     1  UNL1        0.1035
      7 C         143.3769  143.8708  163.4922 C.3     1  UNL1        0.1470
      8 C         142.4303  144.8672  162.8914 C.3     1  UNL1        0.1036
      9 O         143.5342  142.5155  162.8691 O.3     1  UNL1       -0.3530
     10 C         140.6943  145.5048  161.0666 C.3     1  UNL1        0.1202
     11 C         139.6366  146.1423  161.9180 C.3     1  UNL1        0.2226
     12 O         138.3348  145.4346  162.1521 O.3     1  UNL1       -0.4740
     13 C         138.2636  141.5441  164.4124 C.ar    1  UNL1        0.0686
     14 C         138.6774  142.8076  165.1070 C.ar    1  UNL1        0.0134
     15 C         138.7012  144.1044  164.3535 C.ar    1  UNL1        0.0376
     16 C         138.3111  144.1378  162.9055 C.ar    1  UNL1        0.1387
     17 C         137.8972  142.8744  162.2110 C.ar    1  UNL1        0.0376
     18 C         137.8735  141.5775  162.9644 C.ar    1  UNL1        0.0134
     19 N         138.2161  138.9505  165.9193 N.1     1  UNL1       -0.1908
     20 C         138.2398  140.2473  165.1659 C.1     1  UNL1        0.1004
     21 C         145.4274  140.5225  164.0707 C.3     1  UNL1        0.0737
     22 C         144.9340  139.1615  164.4636 C.3     1  UNL1        0.0362
     23 C         143.8598  139.0240  165.5014 C.3     1  UNL1        0.0929
     24 N         142.6224  139.8675  165.4165 N.3     1  UNL1       -0.1793
     25 H         141.8784  139.2645  165.0655 H       1  UNL1        0.1488
     26 S         142.0891  140.5427  166.6452 S.O2    1  UNL1        0.0624
     27 O         141.6454  141.7084  165.8121 O.2     1  UNL1       -0.1529
     28 O         142.5329  139.3770  167.4784 O.2     1  UNL1       -0.1529
     29 C         141.5559  141.2179  167.8739 C.ar    1  UNL1        0.1492
     30 C         140.2145  140.8290  168.4210 C.ar    1  UNL1        0.0222
     31 C         139.6811  141.5042  169.6497 C.ar    1  UNL1        0.0015
     32 C         140.4892  142.5683  170.3313 C.ar    1  UNL1        0.0024
     33 C         141.8307  142.9572  169.7842 C.ar    1  UNL1        0.0310
     34 C         142.3640  142.2820  168.5555 C.ar    1  UNL1        0.1586
     35 F         143.7054  142.6709  168.0085 F       1  UNL1       -0.2028
@<TRIPOS>BOND
     1    19    20    3
     2    20    13    1
     3    13    14   ar
     4    14    15   ar
     5    15    16   ar
     6    16    12    1
     7    12    11    1
     8    11    10    1
     9    10     1    1
    10     1     2    1
    11     2     3    1
    12     3     4    1
    13     4     5    1
    14     5    21    1
    15    21    22    1
    16    22    23    1
    17    23    24    1
    18    24    26    1
    19    26    27    2
    20    26    28    2
    21    26    29    1
    22    29    30   ar
    23    30    31   ar
    24    31    32   ar
    25    32    33   ar
    26    33    34   ar
    27    34    35    1
    28     5     6    1
    29     6     7    1
    30     7     8    1
    31     7     9    1
    32    16    17   ar
    33    17    18   ar
    34    18    13   ar
    35     8     1    1
    36     9     3    1
    37    34    29   ar
    38    24    25    1
@<TRIPOS>MOLECULE
*****
 35 38 0 0 0
SMALL
GASTEIGER

@<TRIPOS>ATOM
      1 N         142.6604  140.8005  167.6799 N.3     1  UNL1       -0.2653
      2 C         142.9165  139.6295  166.7782 C.3     1  UNL1        0.1036
      3 C         143.5027  139.8471  165.4147 C.3     1  UNL1        0.1470
      4 C         144.0889  140.0646  164.0512 C.3     1  UNL1        0.1035
      5 N         144.4189  141.4531  163.5895 N.3     1  UNL1       -0.2685
      6 C         144.1627  142.6240  164.4913 C.3     1  UNL1        0.1035
      7 C         143.5766  142.4065  165.8548 C.3     1  UNL1        0.1470
      8 C         142.9905  142.1890  167.2183 C.3     1  UNL1        0.1036
      9 O         143.8327  141.2355  164.9530 O.3     1  UNL1       -0.3530
     10 C         142.0743  140.5829  169.0435 C.3     1  UNL1        0.1202
     11 C         140.7232  139.9472  169.1863 C.3     1  UNL1        0.2226
     12 O         139.5348  140.5479  168.4956 O.3     1  UNL1       -0.4740
     13 C         138.6208  139.4510  164.2281 C.ar    1  UNL1        0.0686
     14 C         138.2956  138.4924  165.3351 C.ar    1  UNL1        0.0134
     15 C         138.6002  138.8580  166.7575 C.ar    1  UNL1        0.0376
     16 C         139.2302  140.1823  167.0731 C.ar    1  UNL1        0.1387
     17 C         139.5554  141.1409  165.9662 C.ar    1  UNL1        0.0376
     18 C         139.2508  140.7753  164.5437 C.ar    1  UNL1        0.0134
     19 N         138.0115  138.7198  161.3832 N.1     1  UNL1       -0.1908
     20 C         138.3162  139.0854  162.8056 C.1     1  UNL1        0.1004
     21 C         145.0050  141.6706  162.2260 C.3     1  UNL1        0.0737
     22 C         144.5786  142.8521  161.4061 C.3     1  UNL1        0.0362
     23 C         143.2827  142.8131  160.6518 C.3     1  UNL1        0.0929
     24 N         142.3690  144.0026  160.6686 N.3     1  UNL1       -0.1793
     25 H         141.9537  144.0680  159.7393 H       1  UNL1        0.1488
     26 S         141.2392  144.0666  161.6534 S.O2    1  UNL1        0.0624
     27 O         141.4990  142.6419  162.0440 O.2     1  UNL1       -0.1529
     28 O         140.9795  145.4914  161.2627 O.2     1  UNL1       -0.1529
     29 C         140.1095  144.1307  162.6380 C.ar    1  UNL1        0.1492
     30 C         138.7357  143.6850  162.2332 C.ar    1  UNL1        0.0222
     31 C         137.6059  143.7490  163.2179 C.ar    1  UNL1        0.0015
     32 C         137.8500  144.2587  164.6074 C.ar    1  UNL1        0.0024
     33 C         139.2240  144.7043  165.0122 C.ar    1  UNL1        0.0310
     34 C         140.3537  144.6403  164.0275 C.ar    1  UNL1        0.1586
     35 F         141.7275  145.0860  164.4323 F       1  UNL1       -0.2028
@<TRIPOS>BOND
     1    19    20    3
     2    20    13    1
     3    13    14   ar
     4    14    15   ar
     5    15    16   ar
     6    16    12    1
     7    12    11    1
     8    11    10    1
     9    10     1    1
    10     1     2    1
    11     2     3    1
    12     3     4    1
    13     4     5    1
    14     5    21    1
    15    21    22    1
    16    22    23    1
    17    23    24    1
    18    24    26    1
    19    26    27    2
    20    26    28    2
    21    26    29    1
    22    29    30   ar
    23    30    31   ar
    24    31    32   ar
    25    32    33   ar
    26    33    34   ar
    27    34    35    1
    28     5     6    1
    29     6     7    1
    30     7     8    1
    31     7     9    1
    32    16    17   ar
    33    17    18   ar
    34    18    13   ar
    35     8     1    1
    36     9     3    1
    37    34    29   ar
    38    24    25    1
@<TRIPOS>MOLECULE
*****
 35 38 0 0 0
SMALL
GASTEIGER

@<TRIPOS>ATOM
      1 N         139.4667  138.0022  164.1594 N.3     1  UNL1       -0.2653
      2 C         140.9545  137.8121  164.1610 C.3     1  UNL1        0.1036
      3 C         141.7183  137.8621  162.8710 C.3     1  UNL1        0.1470
      4 C         142.4823  137.9120  161.5810 C.3     1  UNL1        0.1035
      5 N         141.7582  138.1522  160.2895 N.3     1  UNL1       -0.2685
      6 C         140.2703  138.3423  160.2879 C.3     1  UNL1        0.1035
      7 C         139.5065  138.2924  161.5779 C.3     1  UNL1        0.1470
      8 C         138.7426  138.2424  162.8678 C.3     1  UNL1        0.1036
      9 O         140.9943  138.1022  161.5795 O.3     1  UNL1       -0.3530
     10 C         138.7027  137.9523  165.4494 C.3     1  UNL1        0.1202
     11 C         138.1738  139.2174  166.0573 C.3     1  UNL1        0.2226
     12 O         139.1037  140.3603  166.3386 O.3     1  UNL1       -0.4740
     13 C         139.2562  143.8787  163.5372 C.ar    1  UNL1        0.0686
     14 C         140.2498  143.7667  164.6554 C.ar    1  UNL1        0.0134
     15 C         140.1989  142.5939  165.5892 C.ar    1  UNL1        0.0376
     16 C         139.1545  141.5331  165.4048 C.ar    1  UNL1        0.1387
     17 C         138.1610  141.6451  164.2867 C.ar    1  UNL1        0.0376
     18 C         138.2118  142.8180  163.3529 C.ar    1  UNL1        0.0134
     19 N         139.3579  146.2243  161.6697 N.1     1  UNL1       -0.1908
     20 C         139.3070  145.0515  162.6035 C.1     1  UNL1        0.1004
     21 C         142.5221  138.2021  158.9995 C.3     1  UNL1        0.0737
     22 C         142.6975  139.5076  158.2818 C.3     1  UNL1        0.0362
     23 C         143.0888  140.7372  159.0466 C.3     1  UNL1        0.0929
     24 N         142.1226  141.3605  160.0098 N.3     1  UNL1       -0.1793
     25 H         141.5084  140.6141  160.3353 H       1  UNL1        0.1488
     26 S         142.6317  142.0662  161.2317 S.O2    1  UNL1        0.0624
     27 O         143.8309  142.5341  160.4619 O.2     1  UNL1       -0.1529
     28 O         141.4324  141.5983  162.0016 O.2     1  UNL1       -0.1529
     29 C         143.1407  142.7718  162.4536 C.ar    1  UNL1        0.1492
     30 C         143.1409  144.2708  162.5085 C.ar    1  UNL1        0.0222
     31 C         143.6500  144.9765  163.7304 C.ar    1  UNL1        0.0015
     32 C         144.1588  144.1831  164.8973 C.ar    1  UNL1        0.0024
     33 C         144.1586  142.6841  164.8423 C.ar    1  UNL1        0.0310
     34 C         143.6496  141.9785  163.6205 C.ar    1  UNL1        0.1586
     35 F         143.6494  140.4795  163.5656 F       1  UNL1       -0.2028
@<TRIPOS>BOND
     1    19    20    3
     2    20    13    1
     3    13    14   ar
     4    14    15   ar
     5    15    16   ar
     6    16    12    1
     7    12    11    1
     8    11    10    1
     9    10     1    1
    10     1     2    1
    11     2     3    1
    12     3     4    1
    13     4     5    1
    14     5    21    1
    15    21    22    1
    16    22    23    1
    17    23    24    1
    18    24    26    1
    19    26    27    2
    20    26    28    2
    21    26    29    1
    22    29    30   ar
    23    30    31   ar
    24    31    32   ar
    25    32    33   ar
    26    33    34   ar
    27    34    35    1
    28     5     6    1
    29     6     7    1
    30     7     8    1
    31     7     9    1
    32    16    17   ar
    33    17    18   ar
    34    18    13   ar
    35     8     1    1
    36     9     3    1
    37    34    29   ar
    38    24    25    1
@<TRIPOS>MOLECULE
*****
 35 38 0 0 0
SMALL
GASTEIGER

@<TRIPOS>ATOM
      1 N         138.2293  139.6691  162.0573 N.3     1  UNL1       -0.2653
      2 C         137.5716  140.4819  163.1328 C.3     1  UNL1        0.1036
      3 C         137.7043  141.9760  163.1308 C.3     1  UNL1        0.1470
      4 C         137.8371  143.4702  163.1288 C.3     1  UNL1        0.1035
      5 N         138.6275  144.1515  162.0513 N.3     1  UNL1       -0.2685
      6 C         139.2853  143.3386  160.9758 C.3     1  UNL1        0.1035
      7 C         139.1525  141.8445  160.9778 C.3     1  UNL1        0.1470
      8 C         139.0198  140.3504  160.9798 C.3     1  UNL1        0.1036
      9 O         138.4948  142.6573  162.0533 O.3     1  UNL1       -0.3530
     10 C         138.0966  138.1750  162.0592 C.3     1  UNL1        0.1202
     11 C         138.7279  137.3674  163.1543 C.3     1  UNL1        0.2226
     12 O         139.9365  137.8916  163.8715 O.3     1  UNL1       -0.4740
     13 C         139.4912  139.8414  167.9027 C.ar    1  UNL1        0.0686
     14 C         138.3278  139.1252  167.2833 C.ar    1  UNL1        0.0134
     15 C         138.4762  138.4753  165.9396 C.ar    1  UNL1        0.0376
     16 C         139.7881  138.5415  165.2152 C.ar    1  UNL1        0.1387
     17 C         140.9515  139.2577  165.8346 C.ar    1  UNL1        0.0376
     18 C         140.8031  139.9076  167.1783 C.ar    1  UNL1        0.0134
     19 N         139.1943  141.1412  170.5901 N.1     1  UNL1       -0.1908
     20 C         139.3428  140.4913  169.2464 C.1     1  UNL1        0.1004
     21 C         138.7603  145.6455  162.0493 C.3     1  UNL1        0.0737
     22 C         140.1205  146.2777  162.0680 C.3     1  UNL1        0.0362
     23 C         141.2660  145.5729  162.7320 C.3     1  UNL1        0.0929
     24 N         141.0010  144.5396  163.7864 N.3     1  UNL1       -0.1793
     25 H         140.0120  144.2991  163.7210 H       1  UNL1        0.1488
     26 S         141.7624  143.2471  163.7780 S.O2    1  UNL1        0.0624
     27 O         140.8308  142.6917  164.8142 O.2     1  UNL1       -0.1529
     28 O         142.6940  143.8025  162.7419 O.2     1  UNL1       -0.1529
     29 C         142.5237  141.9547  163.7697 C.ar    1  UNL1        0.1492
     30 C         142.2159  140.9096  162.7387 C.ar    1  UNL1        0.0222
     31 C         142.9772  139.6172  162.7303 C.ar    1  UNL1        0.0015
     32 C         144.0463  139.3698  163.7530 C.ar    1  UNL1        0.0024
     33 C         144.3541  140.4150  164.7840 C.ar    1  UNL1        0.0310
     34 C         143.5928  141.7074  164.7924 C.ar    1  UNL1        0.1586
     35 F         143.9006  142.7524  165.8234 F       1  UNL1       -0.2028
@<TRIPOS>BOND
     1    19    20    3
     2    20    13    1
     3    13    14   ar
     4    14    15   ar
     5    15    16   ar
     6    16    12    1
     7    12    11    1
     8    11    10    1
     9    10     1    1
    10     1     2    1
    11     2     3    1
    12     3     4    1
    13     4     5    1
    14     5    21    1
    15    21    22    1
    16    22    23    1
    17    23    24    1
    18    24    26    1
    19    26    27    2
    20    26    28    2
    21    26    29    1
    22    29    30   ar
    23    30    31   ar
    24    31    32   ar
    25    32    33   ar
    26    33    34   ar
    27    34    35    1
    28     5     6    1
    29     6     7    1
    30     7     8    1
    31     7     9    1
    32    16    17   ar
    33    17    18   ar
    34    18    13   ar
    35     8     1    1
    36     9     3    1
    37    34    29   ar
    38    24    25    1
@<TRIPOS>MOLECULE
*****
 35 38 0 0 0
SMALL
GASTEIGER

@<TRIPOS>ATOM
      1 N         142.2190  139.8619  164.1037 N.3     1  UNL1       -0.2653
      2 C         142.9861  141.1288  164.3416 C.3     1  UNL1        0.1036
      3 C         142.8382  142.2838  163.3961 C.3     1  UNL1        0.1470
      4 C         142.6903  143.4389  162.4506 C.3     1  UNL1        0.1035
      5 N         141.7754  143.3271  161.2672 N.3     1  UNL1       -0.2685
      6 C         141.0083  142.0602  161.0294 C.3     1  UNL1        0.1035
      7 C         141.1562  140.9051  161.9748 C.3     1  UNL1        0.1470
      8 C         141.3040  139.7501  162.9203 C.3     1  UNL1        0.1036
      9 O         141.9232  142.1720  162.2127 O.3     1  UNL1       -0.3530
     10 C         142.3668  138.7068  165.0492 C.3     1  UNL1        0.1202
     11 C         143.4564  138.7161  166.0801 C.3     1  UNL1        0.2226
     12 O         143.1089  138.7763  167.5381 O.3     1  UNL1       -0.4740
     13 C         141.1766  142.4668  169.2400 C.ar    1  UNL1        0.0686
     14 C         142.4328  142.5842  168.4286 C.ar    1  UNL1        0.0134
     15 C         143.0769  141.3540  167.8613 C.ar    1  UNL1        0.0376
     16 C         142.4649  140.0065  168.1054 C.ar    1  UNL1        0.1387
     17 C         141.2087  139.8891  168.9168 C.ar    1  UNL1        0.0376
     18 C         140.5646  141.1192  169.4841 C.ar    1  UNL1        0.0134
     19 N         139.8884  144.9271  170.3747 N.1     1  UNL1       -0.1908
     20 C         140.5325  143.6969  169.8074 C.1     1  UNL1        0.1004
     21 C         141.6275  144.4821  160.3218 C.3     1  UNL1        0.0737
     22 C         140.3586  145.2820  160.3075 C.3     1  UNL1        0.0362
     23 C         139.8712  145.9377  161.5654 C.3     1  UNL1        0.0929
     24 N         138.6232  145.4425  162.2342 N.3     1  UNL1       -0.1793
     25 H         137.9410  145.2720  161.4953 H       1  UNL1        0.1488
     26 S         138.6658  144.2034  163.0786 S.O2    1  UNL1        0.0624
     27 O         138.1102  143.4059  161.9362 O.2     1  UNL1       -0.1529
     28 O         139.2215  145.0010  164.2210 O.2     1  UNL1       -0.1529
     29 C         138.7085  142.9644  163.9229 C.ar    1  UNL1        0.1492
     30 C         137.7600  141.8357  163.6467 C.ar    1  UNL1        0.0222
     31 C         137.8026  140.5965  164.4910 C.ar    1  UNL1        0.0015
     32 C         138.7937  140.4862  165.6115 C.ar    1  UNL1        0.0024
     33 C         139.7422  141.6150  165.8877 C.ar    1  UNL1        0.0310
     34 C         139.6996  142.8540  165.0434 C.ar    1  UNL1        0.1586
     35 F         140.6481  143.9828  165.3196 F       1  UNL1       -0.2028
@<TRIPOS>BOND
     1    19    20    3
     2    20    13    1
     3    13    14   ar
     4    14    15   ar
     5    15    16   ar
     6    16    12    1
     7    12    11    1
     8    11    10    1
     9    10     1    1
    10     1     2    1
    11     2     3    1
    12     3     4    1
    13     4     5    1
    14     5    21    1
    15    21    22    1
    16    22    23    1
    17    23    24    1
    18    24    26    1
    19    26    27    2
    20    26    28    2
    21    26    29    1
    22    29    30   ar
    23    30    31   ar
    24    31    32   ar
    25    32    33   ar
    26    33    34   ar
    27    34    35    1
    28     5     6    1
    29     6     7    1
    30     7     8    1
    31     7     9    1
    32    16    17   ar
    33    17    18   ar
    34    18    13   ar
    35     8     1    1
    36     9     3    1
    37    34    29   ar
    38    24    25    1
@<TRIPOS>MOLECULE
*****
 35 38 0 0 0
SMALL
GASTEIGER

@<TRIPOS>ATOM
      1 N         142.9800  139.8267  161.8331 N.3     1  UNL1       -0.2653
      2 C         141.7073  139.9126  161.0441 C.3     1  UNL1        0.1036
      3 C         141.5742  140.9227  159.9432 C.3     1  UNL1        0.1470
      4 C         141.4410  141.9328  158.8423 C.3     1  UNL1        0.1035
      5 N         142.5806  142.8570  158.5305 N.3     1  UNL1       -0.2685
      6 C         143.8534  142.7710  159.3196 C.3     1  UNL1        0.1035
      7 C         143.9865  141.7609  160.4205 C.3     1  UNL1        0.1470
      8 C         144.1197  140.7508  161.5214 C.3     1  UNL1        0.1036
      9 O         142.7138  141.8468  159.6314 O.3     1  UNL1       -0.3530
     10 C         143.1132  138.8165  162.9341 C.3     1  UNL1        0.1202
     11 C         142.9041  139.2300  164.3607 C.3     1  UNL1        0.2226
     12 O         142.1027  140.4583  164.6758 O.3     1  UNL1       -0.4740
     13 C         141.1551  141.4909  168.9520 C.ar    1  UNL1        0.0686
     14 C         141.9696  140.2711  168.6377 C.ar    1  UNL1        0.0134
     15 C         142.2855  139.9269  167.2123 C.ar    1  UNL1        0.0376
     16 C         141.7868  140.8025  166.1012 C.ar    1  UNL1        0.1387
     17 C         140.9724  142.0222  166.4153 C.ar    1  UNL1        0.0376
     18 C         140.6565  142.3665  167.8408 C.ar    1  UNL1        0.0134
     19 N         140.5234  142.1793  171.8027 N.1     1  UNL1       -0.1908
     20 C         140.8393  141.8351  170.3773 C.1     1  UNL1        0.1004
     21 C         142.4475  143.8671  157.4296 C.3     1  UNL1        0.0737
     22 C         142.0630  145.2809  157.7514 C.3     1  UNL1        0.0362
     23 C         141.1032  145.5611  158.8695 C.3     1  UNL1        0.0929
     24 N         141.5655  145.4754  160.2939 N.3     1  UNL1       -0.1793
     25 H         141.8751  146.4102  160.5597 H       1  UNL1        0.1488
     26 S         140.6203  145.0120  161.3625 S.O2    1  UNL1        0.0624
     27 O         139.6040  146.0123  160.8974 O.2     1  UNL1       -0.1529
     28 O         141.6366  144.0116  161.8277 O.2     1  UNL1       -0.1529
     29 C         139.6752  144.5486  162.4311 C.ar    1  UNL1        0.1492
     30 C         139.7690  145.1204  163.8147 C.ar    1  UNL1        0.0222
     31 C         138.8238  144.6571  164.8834 C.ar    1  UNL1        0.0015
     32 C         137.7848  143.6220  164.5684 C.ar    1  UNL1        0.0024
     33 C         137.6911  143.0502  163.1848 C.ar    1  UNL1        0.0310
     34 C         138.6362  143.5136  162.1162 C.ar    1  UNL1        0.1586
     35 F         138.5424  142.9418  160.7327 F       1  UNL1       -0.2028
@<TRIPOS>BOND
     1    19    20    3
     2    20    13    1
     3    13    14   ar
     4    14    15   ar
     5    15    16   ar
     6    16    12    1
     7    12    11    1
     8    11    10    1
     9    10     1    1
    10     1     2    1
    11     2     3    1
    12     3     4    1
    13     4     5    1
    14     5    21    1
    15    21    22    1
    16    22    23    1
    17    23    24    1
    18    24    26    1
    19    26    27    2
    20    26    28    2
    21    26    29    1
    22    29    30   ar
    23    30    31   ar
    24    31    32   ar
    25    32    33   ar
    26    33    34   ar
    27    34    35    1
    28     5     6    1
    29     6     7    1
    30     7     8    1
    31     7     9    1
    32    16    17   ar
    33    17    18   ar
    34    18    13   ar
    35     8     1    1
    36     9     3    1
    37    34    29   ar
    38    24    25    1
@<TRIPOS>MOLECULE
*****
 35 38 0 0 0
SMALL
GASTEIGER

@<TRIPOS>ATOM
      1 N         144.6393  139.5513  163.9043 N.3     1  UNL1       -0.2653
      2 C         145.0471  140.9942  163.8657 C.3     1  UNL1        0.1036
      3 C         144.8208  141.8046  162.6240 C.3     1  UNL1        0.1470
      4 C         144.5944  142.6151  161.3822 C.3     1  UNL1        0.1035
      5 N         143.9602  141.9825  160.1790 N.3     1  UNL1       -0.2685
      6 C         143.5524  140.5395  160.2176 C.3     1  UNL1        0.1035
      7 C         143.7787  139.7291  161.4594 C.3     1  UNL1        0.1470
      8 C         144.0051  138.9187  162.7011 C.3     1  UNL1        0.1036
      9 O         144.1866  141.1720  161.4208 O.3     1  UNL1       -0.3530
     10 C         144.8656  138.7408  165.1461 C.3     1  UNL1        0.1202
     11 C         143.7017  138.3429  166.0045 C.3     1  UNL1        0.2226
     12 O         142.3585  138.9739  165.7863 O.3     1  UNL1       -0.4740
     13 C         140.9750  142.3072  168.4742 C.ar    1  UNL1        0.0686
     14 C         142.3270  142.3768  167.8281 C.ar    1  UNL1        0.0134
     15 C         142.7881  141.2657  166.9322 C.ar    1  UNL1        0.0376
     16 C         141.8973  140.0850  166.6822 C.ar    1  UNL1        0.1387
     17 C         140.5454  140.0154  167.3282 C.ar    1  UNL1        0.0376
     18 C         140.0842  141.1266  168.2242 C.ar    1  UNL1        0.0134
     19 N         140.0527  144.5295  170.2661 N.1     1  UNL1       -0.1908
     20 C         140.5139  143.4184  169.3701 C.1     1  UNL1        0.1004
     21 C         143.7338  142.7929  158.9372 C.3     1  UNL1        0.0737
     22 C         142.3403  143.1751  158.5347 C.3     1  UNL1        0.0362
     23 C         141.7783  144.5034  158.9466 C.3     1  UNL1        0.0929
     24 N         140.3986  144.5858  159.5294 N.3     1  UNL1       -0.1793
     25 H         139.8223  143.9181  159.0172 H       1  UNL1        0.1488
     26 S         140.1834  144.3137  160.9888 S.O2    1  UNL1        0.0624
     27 O         138.9402  143.5409  160.6613 O.2     1  UNL1       -0.1529
     28 O         141.4266  145.0865  161.3163 O.2     1  UNL1       -0.1529
     29 C         139.9681  144.0416  162.4481 C.ar    1  UNL1        0.1492
     30 C         139.2486  145.0448  163.2999 C.ar    1  UNL1        0.0222
     31 C         139.0333  144.7727  164.7592 C.ar    1  UNL1        0.0015
     32 C         139.5376  143.4973  165.3667 C.ar    1  UNL1        0.0024
     33 C         140.2572  142.4940  164.5148 C.ar    1  UNL1        0.0310
     34 C         140.4724  142.7661  163.0555 C.ar    1  UNL1        0.1586
     35 F         141.1920  141.7629  162.2037 F       1  UNL1       -0.2028
@<TRIPOS>BOND
     1    19    20    3
     2    20    13    1
     3    13    14   ar
     4    14    15   ar
     5    15    16   ar
     6    16    12    1
     7    12    11    1
     8    11    10    1
     9    10     1    1
    10     1     2    1
    11     2     3    1
    12     3     4    1
    13     4     5    1
    14     5    21    1
    15    21    22    1
    16    22    23    1
    17    23    24    1
    18    24    26    1
    19    26    27    2
    20    26    28    2
    21    26    29    1
    22    29    30   ar
    23    30    31   ar
    24    31    32   ar
    25    32    33   ar
    26    33    34   ar
    27    34    35    1
    28     5     6    1
    29     6     7    1
    30     7     8    1
    31     7     9    1
    32    16    17   ar
    33    17    18   ar
    34    18    13   ar
    35     8     1    1
    36     9     3    1
    37    34    29   ar
    38    24    25    1
