@<TRIPOS>MOLECULE
*****
 30 32 0 0 0
SMALL
GASTEIGER

@<TRIPOS>ATOM
      1 C         140.7421  140.9272  169.9377 C.3     1  UNL1        0.0975
      2 C         140.7134  141.5477  171.3031 C.3     1  UNL1        0.0781
      3 N         142.0793  142.0963  171.5918 N.3     1  UNL1       -0.2968
      4 C         142.9522  141.8148  170.4049 C.3     1  UNL1        0.0735
      5 C         142.1258  141.0923  169.3826 C.3     1  UNL1        0.0495
      6 H         142.4657  141.6444  172.4206 H       1  UNL1        0.1233
      7 C         142.5999  140.6182  168.0408 C.ar    1  UNL1       -0.0015
      8 C         142.8479  139.1575  167.8063 C.ar    1  UNL1       -0.0012
      9 C         143.3220  138.6833  166.4645 C.ar    1  UNL1        0.0228
     10 C         143.5480  139.6697  165.3572 C.ar    1  UNL1        0.1526
     11 N         143.3000  141.1303  165.5918 N.ar    1  UNL1       -0.2402
     12 C         142.8259  141.6045  166.9336 C.ar    1  UNL1        0.0945
     13 C         144.0221  139.1956  164.0154 C.3     1  UNL1        0.4348
     14 F         144.4962  138.7214  162.6737 F       1  UNL1       -0.1644
     15 F         142.6010  138.9636  163.5953 F       1  UNL1       -0.1644
     16 F         145.4433  139.4276  164.4356 F       1  UNL1       -0.1644
     17 N         139.6407  140.0122  167.7698 N.am    1  UNL1       -0.3004
     18 C         139.5895  140.2590  169.2485 C.2     1  UNL1        0.2240
     19 O         138.3857  139.8376  170.0380 O.2     1  UNL1       -0.2750
     20 H         140.4309  140.2888  167.2517 H       1  UNL1        0.1497
     21 C         138.4882  139.3440  167.0806 C.3     1  UNL1        0.1163
     22 C         138.3828  139.1088  162.5880 C.ar    1  UNL1        0.0479
     23 C         137.9745  140.3740  163.2826 C.ar    1  UNL1        0.0142
     24 C         138.0096  140.4524  164.7801 C.ar    1  UNL1       -0.0014
     25 C         138.4531  139.2656  165.5831 C.ar    1  UNL1       -0.0025
     26 C         138.8614  138.0004  164.8885 C.ar    1  UNL1       -0.0014
     27 C         138.8263  137.9220  163.3910 C.ar    1  UNL1        0.0142
     28 C         139.3768  138.2220  160.3574 C.3     1  UNL1        0.1122
     29 N         138.3477  139.0304  161.0905 N.pl3   1  UNL1       -0.3041
     30 C         137.2835  139.7604  160.3260 C.3     1  UNL1        0.1122
@<TRIPOS>BOND
     1    28    29    1
     2    29    30    1
     3    29    22    1
     4    22    23   ar
     5    23    24   ar
     6    24    25   ar
     7    25    21    1
     8    21    17    1
     9    17    18   am
    10    18    19    2
    11     1    18    1
    12     1     2    1
    13     2     3    1
    14     3     4    1
    15     4     5    1
    16     5     7    1
    17     7     8   ar
    18     8     9   ar
    19     9    10   ar
    20    10    13    1
    21    13    14    1
    22    13    15    1
    23    13    16    1
    24    10    11   ar
    25    11    12   ar
    26    25    26   ar
    27    26    27   ar
    28    27    22   ar
    29     5     1    1
    30    12     7   ar
    31    17    20    1
    32     3     6    1
@<TRIPOS>MOLECULE
*****
 30 32 0 0 0
SMALL
GASTEIGER

@<TRIPOS>ATOM
      1 C         140.5675  141.1383  170.0613 C.3     1  UNL1        0.0975
      2 C         140.8724  141.1175  171.5299 C.3     1  UNL1        0.0781
      3 N         142.0209  142.0500  171.7781 N.3     1  UNL1       -0.2968
      4 C         142.4257  142.6471  170.4629 C.3     1  UNL1        0.0735
      5 C         141.5275  142.0836  169.4019 C.3     1  UNL1        0.0495
      6 H         142.8041  141.5351  172.1803 H       1  UNL1        0.1233
      7 C         141.5801  142.4084  167.9385 C.ar    1  UNL1       -0.0015
      8 C         140.3804  142.9978  167.2575 C.ar    1  UNL1       -0.0012
      9 C         140.4330  143.3227  165.7941 C.ar    1  UNL1        0.0228
     10 C         141.6851  143.0582  165.0115 C.ar    1  UNL1        0.1526
     11 N         142.8846  142.4688  165.6925 N.ar    1  UNL1       -0.2402
     12 C         142.8320  142.1439  167.1559 C.ar    1  UNL1        0.0945
     13 C         141.7377  143.3830  163.5481 C.3     1  UNL1        0.4348
     14 F         141.7902  143.7078  162.0846 F       1  UNL1       -0.1644
     15 F         142.6528  144.5359  163.8368 F       1  UNL1       -0.1644
     16 F         140.8225  142.2301  163.2593 F       1  UNL1       -0.1644
     17 N         139.6695  139.9272  167.9455 N.am    1  UNL1       -0.3004
     18 C         139.4915  140.3518  169.3730 C.2     1  UNL1        0.2240
     19 O         138.2375  139.9899  170.1124 O.2     1  UNL1       -0.2750
     20 H         140.4925  140.1647  167.4602 H       1  UNL1        0.1497
     21 C         138.5935  139.1407  167.2572 C.3     1  UNL1        0.1163
     22 C         138.4314  139.0051  162.7621 C.ar    1  UNL1        0.0479
     23 C         138.8697  137.7958  163.5336 C.ar    1  UNL1        0.0142
     24 C         138.9238  137.8410  165.0320 C.ar    1  UNL1       -0.0014
     25 C         138.5395  139.0955  165.7588 C.ar    1  UNL1       -0.0025
     26 C         138.1011  140.3049  164.9873 C.ar    1  UNL1       -0.0014
     27 C         138.0471  140.2597  163.4890 C.ar    1  UNL1        0.0142
     28 C         139.3347  138.0898  160.5047 C.3     1  UNL1        0.1122
     29 N         138.3773  138.9599  161.2638 N.pl3   1  UNL1       -0.3041
     30 C         137.3659  139.7849  160.5246 C.3     1  UNL1        0.1122
@<TRIPOS>BOND
     1    28    29    1
     2    29    30    1
     3    29    22    1
     4    22    23   ar
     5    23    24   ar
     6    24    25   ar
     7    25    21    1
     8    21    17    1
     9    17    18   am
    10    18    19    2
    11     1    18    1
    12     1     2    1
    13     2     3    1
    14     3     4    1
    15     4     5    1
    16     5     7    1
    17     7     8   ar
    18     8     9   ar
    19     9    10   ar
    20    10    13    1
    21    13    14    1
    22    13    15    1
    23    13    16    1
    24    10    11   ar
    25    11    12   ar
    26    25    26   ar
    27    26    27   ar
    28    27    22   ar
    29     5     1    1
    30    12     7   ar
    31    17    20    1
    32     3     6    1
@<TRIPOS>MOLECULE
*****
 30 32 0 0 0
SMALL
GASTEIGER

@<TRIPOS>ATOM
      1 C         141.5507  140.2449  169.7201 C.3     1  UNL1        0.0975
      2 C         141.7638  140.6607  171.1455 C.3     1  UNL1        0.0781
      3 N         140.6407  141.5758  171.5343 N.3     1  UNL1       -0.2968
      4 C         139.7334  141.7255  170.3491 C.3     1  UNL1        0.0735
      5 C         140.2958  140.9030  169.2280 C.3     1  UNL1        0.0495
      6 H         141.0133  142.4867  171.8023 H       1  UNL1        0.1233
      7 C         139.7068  140.7631  167.8556 C.ar    1  UNL1       -0.0015
      8 C         138.8833  139.5572  167.5123 C.ar    1  UNL1       -0.0012
      9 C         138.2943  139.4174  166.1399 C.ar    1  UNL1        0.0228
     10 C         138.5287  140.4833  165.1108 C.ar    1  UNL1        0.1526
     11 N         139.3522  141.6890  165.4541 N.ar    1  UNL1       -0.2402
     12 C         139.9412  141.8289  166.8265 C.ar    1  UNL1        0.0945
     13 C         137.9396  140.3434  163.7384 C.3     1  UNL1        0.4348
     14 F         137.3506  140.2036  162.3660 F       1  UNL1       -0.1644
     15 F         138.4992  138.9552  163.6397 F       1  UNL1       -0.1644
     16 F         137.3801  141.7317  163.8371 F       1  UNL1       -0.1644
     17 N         142.5861  139.5300  167.4470 N.am    1  UNL1       -0.3004
     18 C         142.4369  139.3314  168.9263 C.2     1  UNL1        0.2240
     19 O         143.1740  138.2192  169.6117 O.2     1  UNL1       -0.2750
     20 H         142.1023  140.2600  166.9971 H       1  UNL1        0.1497
     21 C         143.4722  138.6166  166.6532 C.3     1  UNL1        0.1163
     22 C         143.3777  138.7385  162.1558 C.ar    1  UNL1        0.0479
     23 C         142.2686  138.0686  162.9114 C.ar    1  UNL1        0.0142
     24 C         142.3001  138.0279  164.4105 C.ar    1  UNL1       -0.0014
     25 C         143.4407  138.6572  165.1540 C.ar    1  UNL1       -0.0025
     26 C         144.5499  139.3271  164.3984 C.ar    1  UNL1       -0.0014
     27 C         144.5184  139.3678  162.8993 C.ar    1  UNL1        0.0142
     28 C         143.8117  140.0058  159.9297 C.3     1  UNL1        0.1122
     29 N         143.3462  138.7791  160.6567 N.pl3   1  UNL1       -0.3041
     30 C         142.8491  137.5931  159.8845 C.3     1  UNL1        0.1122
@<TRIPOS>BOND
     1    28    29    1
     2    29    30    1
     3    29    22    1
     4    22    23   ar
     5    23    24   ar
     6    24    25   ar
     7    25    21    1
     8    21    17    1
     9    17    18   am
    10    18    19    2
    11     1    18    1
    12     1     2    1
    13     2     3    1
    14     3     4    1
    15     4     5    1
    16     5     7    1
    17     7     8   ar
    18     8     9   ar
    19     9    10   ar
    20    10    13    1
    21    13    14    1
    22    13    15    1
    23    13    16    1
    24    10    11   ar
    25    11    12   ar
    26    25    26   ar
    27    26    27   ar
    28    27    22   ar
    29     5     1    1
    30    12     7   ar
    31    17    20    1
    32     3     6    1
@<TRIPOS>MOLECULE
*****
 30 32 0 0 0
SMALL
GASTEIGER

@<TRIPOS>ATOM
      1 C         139.1779  139.5845  167.1557 C.3     1  UNL1        0.0975
      2 C         138.3021  139.4197  168.3623 C.3     1  UNL1        0.0781
      3 N         139.0772  139.8745  169.5633 N.3     1  UNL1       -0.2968
      4 C         140.4321  140.3202  169.0989 C.3     1  UNL1        0.0735
      5 C         140.4943  140.1410  167.6109 C.3     1  UNL1        0.0495
      6 H         139.1742  139.1041  170.2247 H       1  UNL1        0.1233
      7 C         141.6670  140.4620  166.7325 C.ar    1  UNL1       -0.0015
      8 C         142.4022  139.3589  166.0303 C.ar    1  UNL1       -0.0012
      9 C         143.5749  139.6799  165.1519 C.ar    1  UNL1        0.0228
     10 C         144.0125  141.1038  164.9755 C.ar    1  UNL1        0.1526
     11 N         143.2774  142.2067  165.6777 N.ar    1  UNL1       -0.2402
     12 C         142.1047  141.8858  166.5561 C.ar    1  UNL1        0.0945
     13 C         145.1853  141.4247  164.0971 C.3     1  UNL1        0.4348
     14 F         146.3580  141.7456  163.2187 F       1  UNL1       -0.1644
     15 F         144.9003  142.8893  164.2518 F       1  UNL1       -0.1644
     16 F         145.4702  139.9601  163.9424 F       1  UNL1       -0.1644
     17 N         139.1750  137.9189  165.1617 N.am    1  UNL1       -0.3004
     18 C         138.8030  139.2512  165.7420 C.2     1  UNL1        0.2240
     19 O         138.0561  140.2500  164.9087 O.2     1  UNL1       -0.2750
     20 H         139.6652  137.2633  165.7086 H       1  UNL1        0.1497
     21 C         138.8001  137.5856  163.7481 C.3     1  UNL1        0.1163
     22 C         141.7182  138.3449  160.4077 C.ar    1  UNL1        0.0479
     23 C         142.2162  137.9122  161.7548 C.ar    1  UNL1        0.0142
     24 C         141.2435  137.6591  162.8682 C.ar    1  UNL1       -0.0014
     25 C         139.7728  137.8387  162.6346 C.ar    1  UNL1       -0.0025
     26 C         139.2748  138.2714  161.2875 C.ar    1  UNL1       -0.0014
     27 C         140.2475  138.5246  160.1741 C.ar    1  UNL1        0.0142
     28 C         143.6645  139.7348  159.3928 C.3     1  UNL1        0.1122
     29 N         142.6909  138.5980  159.2942 N.pl3   1  UNL1       -0.3041
     30 C         142.6900  137.7143  158.0822 C.3     1  UNL1        0.1122
@<TRIPOS>BOND
     1    28    29    1
     2    29    30    1
     3    29    22    1
     4    22    23   ar
     5    23    24   ar
     6    24    25   ar
     7    25    21    1
     8    21    17    1
     9    17    18   am
    10    18    19    2
    11     1    18    1
    12     1     2    1
    13     2     3    1
    14     3     4    1
    15     4     5    1
    16     5     7    1
    17     7     8   ar
    18     8     9   ar
    19     9    10   ar
    20    10    13    1
    21    13    14    1
    22    13    15    1
    23    13    16    1
    24    10    11   ar
    25    11    12   ar
    26    25    26   ar
    27    26    27   ar
    28    27    22   ar
    29     5     1    1
    30    12     7   ar
    31    17    20    1
    32     3     6    1
@<TRIPOS>MOLECULE
*****
 30 32 0 0 0
SMALL
GASTEIGER

@<TRIPOS>ATOM
      1 C         143.8062  142.6688  159.8062 C.3     1  UNL1        0.0975
      2 C         144.4776  142.7063  158.4654 C.3     1  UNL1        0.0781
      3 N         143.6725  143.5993  157.5686 N.3     1  UNL1       -0.2968
      4 C         142.5034  144.1137  158.3551 C.3     1  UNL1        0.0735
      5 C         142.5860  143.5386  159.7380 C.3     1  UNL1        0.0495
      6 H         143.3411  143.0712  156.7613 H       1  UNL1        0.1233
      7 C         141.6184  143.7893  160.8564 C.ar    1  UNL1       -0.0015
      8 C         142.0877  144.4450  162.1213 C.ar    1  UNL1       -0.0012
      9 C         141.1200  144.6957  163.2397 C.ar    1  UNL1        0.0228
     10 C         139.6831  144.2908  163.0933 C.ar    1  UNL1        0.1526
     11 N         139.2139  143.6352  161.8284 N.ar    1  UNL1       -0.2402
     12 C         140.1815  143.3845  160.7100 C.ar    1  UNL1        0.0945
     13 C         138.7154  144.5416  164.2116 C.3     1  UNL1        0.4348
     14 F         137.7477  144.7923  165.3299 F       1  UNL1       -0.1644
     15 F         139.8615  144.7699  165.1520 F       1  UNL1       -0.1644
     16 F         137.5693  144.3132  163.2711 F       1  UNL1       -0.1644
     17 N         145.1758  142.5474  162.0106 N.am    1  UNL1       -0.3004
     18 C         144.2730  141.8970  161.0047 C.2     1  UNL1        0.2240
     19 O         143.8369  140.4748  161.1974 O.2     1  UNL1       -0.2750
     20 H         145.4620  143.4809  161.8842 H       1  UNL1        0.1497
     21 C         145.6426  141.7757  163.2091 C.3     1  UNL1        0.1163
     22 C         142.7130  140.6252  166.4254 C.ar    1  UNL1        0.0479
     23 C         142.9672  142.0727  166.1253 C.ar    1  UNL1        0.0142
     24 C         143.9437  142.4562  165.0532 C.ar    1  UNL1       -0.0014
     25 C         144.6661  141.3922  164.2812 C.ar    1  UNL1       -0.0025
     26 C         144.4118  139.9447  164.5813 C.ar    1  UNL1       -0.0014
     27 C         143.4353  139.5612  165.6533 C.ar    1  UNL1        0.0142
     28 C         140.2658  140.4382  167.2774 C.3     1  UNL1        0.1122
     29 N         141.7365  140.2417  167.4974 N.pl3   1  UNL1       -0.3041
     30 C         142.2306  139.6618  168.7895 C.3     1  UNL1        0.1122
@<TRIPOS>BOND
     1    28    29    1
     2    29    30    1
     3    29    22    1
     4    22    23   ar
     5    23    24   ar
     6    24    25   ar
     7    25    21    1
     8    21    17    1
     9    17    18   am
    10    18    19    2
    11     1    18    1
    12     1     2    1
    13     2     3    1
    14     3     4    1
    15     4     5    1
    16     5     7    1
    17     7     8   ar
    18     8     9   ar
    19     9    10   ar
    20    10    13    1
    21    13    14    1
    22    13    15    1
    23    13    16    1
    24    10    11   ar
    25    11    12   ar
    26    25    26   ar
    27    26    27   ar
    28    27    22   ar
    29     5     1    1
    30    12     7   ar
    31    17    20    1
    32     3     6    1
@<TRIPOS>MOLECULE
*****
 30 32 0 0 0
SMALL
GASTEIGER

@<TRIPOS>ATOM
      1 C         139.7565  139.4312  160.4197 C.3     1  UNL1        0.0975
      2 C         139.5545  138.7697  159.0887 C.3     1  UNL1        0.0781
      3 N         138.5954  139.6071  158.2957 N.3     1  UNL1       -0.2968
      4 C         138.2046  140.7861  159.1367 C.3     1  UNL1        0.0735
      5 C         138.9222  140.6774  160.4494 C.3     1  UNL1        0.0495
      6 H         137.7676  139.0585  158.0628 H       1  UNL1        0.1233
      7 C         138.8229  141.6449  161.5913 C.ar    1  UNL1       -0.0015
      8 C         137.8580  141.3876  162.7106 C.ar    1  UNL1       -0.0012
      9 C         137.7587  142.3552  163.8525 C.ar    1  UNL1        0.0228
     10 C         138.6243  143.5801  163.8751 C.ar    1  UNL1        0.1526
     11 N         139.5891  143.8374  162.7558 N.ar    1  UNL1       -0.2402
     12 C         139.6884  142.8698  161.6140 C.ar    1  UNL1        0.0945
     13 C         138.5250  144.5477  165.0170 C.3     1  UNL1        0.4348
     14 F         138.4256  145.5153  166.1589 F       1  UNL1       -0.1644
     15 F         139.9963  144.8207  164.9136 F       1  UNL1       -0.1644
     16 F         137.0536  144.2747  165.1204 F       1  UNL1       -0.1644
     17 N         140.1778  137.8066  162.4031 N.am    1  UNL1       -0.3004
     18 C         140.6381  138.9337  161.5268 C.2     1  UNL1        0.2240
     19 O         141.9798  139.5633  161.7575 O.2     1  UNL1       -0.2750
     20 H         139.2971  137.3934  162.2516 H       1  UNL1        0.1497
     21 C         141.0593  137.3091  163.5100 C.3     1  UNL1        0.1163
     22 C         141.6024  139.7753  167.2347 C.ar    1  UNL1        0.0479
     23 C         142.7652  139.0252  166.6556 C.ar    1  UNL1        0.0142
     24 C         142.5841  138.2032  165.4141 C.ar    1  UNL1       -0.0014
     25 C         141.2403  138.1312  164.7516 C.ar    1  UNL1       -0.0025
     26 C         140.0776  138.8813  165.3306 C.ar    1  UNL1       -0.0014
     27 C         140.2586  139.7034  166.5721 C.ar    1  UNL1        0.0142
     28 C         141.6583  139.9551  169.8259 C.3     1  UNL1        0.1122
     29 N         141.7835  140.5974  168.4762 N.pl3   1  UNL1       -0.3041
     30 C         142.0898  142.0618  168.3680 C.3     1  UNL1        0.1122
@<TRIPOS>BOND
     1    28    29    1
     2    29    30    1
     3    29    22    1
     4    22    23   ar
     5    23    24   ar
     6    24    25   ar
     7    25    21    1
     8    21    17    1
     9    17    18   am
    10    18    19    2
    11     1    18    1
    12     1     2    1
    13     2     3    1
    14     3     4    1
    15     4     5    1
    16     5     7    1
    17     7     8   ar
    18     8     9   ar
    19     9    10   ar
    20    10    13    1
    21    13    14    1
    22    13    15    1
    23    13    16    1
    24    10    11   ar
    25    11    12   ar
    26    25    26   ar
    27    26    27   ar
    28    27    22   ar
    29     5     1    1
    30    12     7   ar
    31    17    20    1
    32     3     6    1
@<TRIPOS>MOLECULE
*****
 30 32 0 0 0
SMALL
GASTEIGER

@<TRIPOS>ATOM
      1 C         139.9308  140.6097  168.1878 C.3     1  UNL1        0.0975
      2 C         139.2485  140.4911  169.5183 C.3     1  UNL1        0.0781
      3 N         139.5462  141.7335  170.3043 N.3     1  UNL1       -0.2968
      4 C         140.4126  142.6200  169.4594 C.3     1  UNL1        0.0735
      5 C         140.6503  141.9253  168.1514 C.3     1  UNL1        0.0495
      6 H         140.0360  141.4895  171.1651 H       1  UNL1        0.1233
      7 C         141.4645  142.4537  167.0077 C.ar    1  UNL1       -0.0015
      8 C         142.9576  142.3104  167.0209 C.ar    1  UNL1       -0.0012
      9 C         143.7718  142.8388  165.8773 C.ar    1  UNL1        0.0228
     10 C         143.0930  143.5104  164.7205 C.ar    1  UNL1        0.1526
     11 N         141.5999  143.6536  164.7073 N.ar    1  UNL1       -0.2402
     12 C         140.7857  143.1253  165.8510 C.ar    1  UNL1        0.0945
     13 C         143.9072  144.0388  163.5768 C.3     1  UNL1        0.4348
     14 F         144.7213  144.5672  162.4332 F       1  UNL1       -0.1644
     15 F         144.7477  142.7966  163.6014 F       1  UNL1       -0.1644
     16 F         143.0666  145.2810  163.5523 F       1  UNL1       -0.1644
     17 N         138.5886  139.0267  166.6248 N.am    1  UNL1       -0.3004
     18 C         139.8992  139.5913  167.0869 C.2     1  UNL1        0.2240
     19 O         141.1782  139.1374  166.4480 O.2     1  UNL1       -0.2750
     20 H         137.7491  139.3246  167.0442 H       1  UNL1        0.1497
     21 C         138.5569  138.0083  165.5240 C.3     1  UNL1        0.1163
     22 C         138.9970  139.3120  161.2395 C.ar    1  UNL1        0.0479
     23 C         139.5457  137.9875  161.6806 C.ar    1  UNL1        0.0142
     24 C         139.3990  137.5530  163.1088 C.ar    1  UNL1       -0.0014
     25 C         138.7036  138.4429  164.0958 C.ar    1  UNL1       -0.0025
     26 C         138.1549  139.7674  163.6548 C.ar    1  UNL1       -0.0014
     27 C         138.3016  140.2019  162.2266 C.ar    1  UNL1        0.0142
     28 C         138.2181  140.7813  159.2434 C.3     1  UNL1        0.1122
     29 N         139.1437  139.7466  159.8114 N.pl3   1  UNL1       -0.3041
     30 C         140.2159  139.1464  158.9512 C.3     1  UNL1        0.1122
@<TRIPOS>BOND
     1    28    29    1
     2    29    30    1
     3    29    22    1
     4    22    23   ar
     5    23    24   ar
     6    24    25   ar
     7    25    21    1
     8    21    17    1
     9    17    18   am
    10    18    19    2
    11     1    18    1
    12     1     2    1
    13     2     3    1
    14     3     4    1
    15     4     5    1
    16     5     7    1
    17     7     8   ar
    18     8     9   ar
    19     9    10   ar
    20    10    13    1
    21    13    14    1
    22    13    15    1
    23    13    16    1
    24    10    11   ar
    25    11    12   ar
    26    25    26   ar
    27    26    27   ar
    28    27    22   ar
    29     5     1    1
    30    12     7   ar
    31    17    20    1
    32     3     6    1
@<TRIPOS>MOLECULE
*****
 30 32 0 0 0
SMALL
GASTEIGER

@<TRIPOS>ATOM
      1 C         141.6722  140.3147  167.3844 C.3     1  UNL1        0.0975
      2 C         142.4103  139.8457  168.6031 C.3     1  UNL1        0.0781
      3 N         143.0953  141.0315  169.2152 N.3     1  UNL1       -0.2968
      4 C         142.7804  142.2335  168.3747 C.3     1  UNL1        0.0735
      5 C         141.9009  141.7904  167.2433 C.3     1  UNL1        0.0495
      6 H         144.1033  140.8771  169.2346 H       1  UNL1        0.1233
      7 C         141.3474  142.6689  166.1608 C.ar    1  UNL1       -0.0015
      8 C         139.9311  143.1564  166.2414 C.ar    1  UNL1       -0.0012
      9 C         139.3775  144.0348  165.1589 C.ar    1  UNL1        0.0228
     10 C         140.2402  144.4259  163.9957 C.ar    1  UNL1        0.1526
     11 N         141.6565  143.9384  163.9151 N.ar    1  UNL1       -0.2402
     12 C         142.2100  143.0599  164.9977 C.ar    1  UNL1        0.0945
     13 C         139.6867  145.3044  162.9132 C.3     1  UNL1        0.4348
     14 F         139.1333  146.1829  161.8307 F       1  UNL1       -0.1644
     15 F         138.3336  144.6853  163.1027 F       1  UNL1       -0.1644
     16 F         141.0399  145.9235  162.7238 F       1  UNL1       -0.1644
     17 N         139.3542  139.5750  166.4733 N.am    1  UNL1       -0.3004
     18 C         140.8496  139.4583  166.4678 C.2     1  UNL1        0.2240
     19 O         141.5226  138.4853  165.5457 O.2     1  UNL1       -0.2750
     20 H         138.9125  140.2137  167.0786 H       1  UNL1        0.1497
     21 C         138.5317  138.7187  165.5568 C.3     1  UNL1        0.1163
     22 C         138.7456  139.3372  161.1046 C.ar    1  UNL1        0.0479
     23 C         139.0796  137.9984  161.6927 C.ar    1  UNL1        0.0142
     24 C         139.0082  137.7922  163.1768 C.ar    1  UNL1       -0.0014
     25 C         138.6030  138.9249  164.0727 C.ar    1  UNL1       -0.0025
     26 C         138.2691  140.2637  163.4846 C.ar    1  UNL1       -0.0014
     27 C         138.3404  140.4699  162.0006 C.ar    1  UNL1        0.0142
     28 C         138.0147  140.6344  158.9756 C.3     1  UNL1        0.1122
     29 N         138.8169  139.5434  159.6206 N.pl3   1  UNL1       -0.3041
     30 C         139.6905  138.6586  158.7816 C.3     1  UNL1        0.1122
@<TRIPOS>BOND
     1    28    29    1
     2    29    30    1
     3    29    22    1
     4    22    23   ar
     5    23    24   ar
     6    24    25   ar
     7    25    21    1
     8    21    17    1
     9    17    18   am
    10    18    19    2
    11     1    18    1
    12     1     2    1
    13     2     3    1
    14     3     4    1
    15     4     5    1
    16     5     7    1
    17     7     8   ar
    18     8     9   ar
    19     9    10   ar
    20    10    13    1
    21    13    14    1
    22    13    15    1
    23    13    16    1
    24    10    11   ar
    25    11    12   ar
    26    25    26   ar
    27    26    27   ar
    28    27    22   ar
    29     5     1    1
    30    12     7   ar
    31    17    20    1
    32     3     6    1
@<TRIPOS>MOLECULE
*****
 30 32 0 0 0
SMALL
GASTEIGER

@<TRIPOS>ATOM
      1 C         139.4384  140.1318  168.6678 C.3     1  UNL1        0.0975
      2 C         138.8558  140.2807  170.0420 C.3     1  UNL1        0.0781
      3 N         139.9024  140.8922  170.9255 N.3     1  UNL1       -0.2968
      4 C         141.1319  141.1213  170.0973 C.3     1  UNL1        0.0735
      5 C         140.8451  140.6513  168.7020 C.3     1  UNL1        0.0495
      6 H         140.1172  140.2598  171.6965 H       1  UNL1        0.1233
      7 C         141.7978  140.6935  167.5442 C.ar    1  UNL1       -0.0015
      8 C         142.0827  141.9948  166.8544 C.ar    1  UNL1       -0.0012
      9 C         143.0353  142.0370  165.6966 C.ar    1  UNL1        0.0228
     10 C         143.7032  140.7781  165.2285 C.ar    1  UNL1        0.1526
     11 N         143.4183  139.4769  165.9182 N.ar    1  UNL1       -0.2402
     12 C         142.4657  139.4347  167.0761 C.ar    1  UNL1        0.0945
     13 C         144.6559  140.8203  164.0706 C.3     1  UNL1        0.4348
     14 F         145.6086  140.8626  162.9128 F       1  UNL1       -0.1644
     15 F         145.2620  139.5246  164.5221 F       1  UNL1       -0.1644
     16 F         144.0497  142.1160  163.6191 F       1  UNL1       -0.1644
     17 N         139.0144  140.1195  166.1046 N.am    1  UNL1       -0.3004
     18 C         138.7373  139.5632  167.4698 C.2     1  UNL1        0.2240
     19 O         137.7592  138.4384  167.6369 O.2     1  UNL1       -0.2750
     20 H         139.6564  140.8578  165.9949 H       1  UNL1        0.1497
     21 C         138.3133  139.5510  164.9066 C.3     1  UNL1        0.1163
     22 C         140.6391  138.6282  161.1664 C.ar    1  UNL1        0.0479
     23 C         139.2712  138.0447  161.3621 C.ar    1  UNL1        0.0142
     24 C         138.4960  138.3524  162.6088 C.ar    1  UNL1       -0.0014
     25 C         139.0886  139.2434  163.6598 C.ar    1  UNL1       -0.0025
     26 C         140.4565  139.8269  163.4641 C.ar    1  UNL1       -0.0014
     27 C         141.2318  139.5193  162.2174 C.ar    1  UNL1        0.0142
     28 C         142.7933  137.7386  160.0183 C.3     1  UNL1        0.1122
     29 N         141.4144  138.3206  159.9196 N.pl3   1  UNL1       -0.3041
     30 C         140.8108  138.5951  158.5742 C.3     1  UNL1        0.1122
@<TRIPOS>BOND
     1    28    29    1
     2    29    30    1
     3    29    22    1
     4    22    23   ar
     5    23    24   ar
     6    24    25   ar
     7    25    21    1
     8    21    17    1
     9    17    18   am
    10    18    19    2
    11     1    18    1
    12     1     2    1
    13     2     3    1
    14     3     4    1
    15     4     5    1
    16     5     7    1
    17     7     8   ar
    18     8     9   ar
    19     9    10   ar
    20    10    13    1
    21    13    14    1
    22    13    15    1
    23    13    16    1
    24    10    11   ar
    25    11    12   ar
    26    25    26   ar
    27    26    27   ar
    28    27    22   ar
    29     5     1    1
    30    12     7   ar
    31    17    20    1
    32     3     6    1
