@<TRIPOS>MOLECULE
*****
 38 40 0 0 0
SMALL
GASTEIGER

@<TRIPOS>ATOM
      1 C         142.5125  143.3371  162.3965 C.2     1  UNL1        0.2485
      2 O         143.6784  143.8998  163.1544 O.2     1  UNL1       -0.2726
      3 N         141.6132  142.3271  163.0454 N.am    1  UNL1       -0.2823
      4 H         140.8480  141.9578  162.5480 H       1  UNL1        0.1549
      5 C         139.4941  146.5780  161.5995 C.3     1  UNL1        0.0948
      6 C         140.5002  145.4977  161.8652 C.2     1  UNL1        0.2267
      7 O         140.7666  145.0504  163.2720 O.2     1  UNL1       -0.2748
      8 N         141.2400  144.8647  160.7241 N.am    1  UNL1       -0.2693
      9 C         140.9736  145.3120  159.3174 C.3     1  UNL1        0.0988
     10 C         141.7134  144.6790  158.1763 C.3     1  UNL1        0.0476
     11 C         142.7196  143.5987  158.4419 C.ar    1  UNL1       -0.0211
     12 C         143.4593  142.9657  157.3009 C.ar    1  UNL1        0.0139
     13 C         144.4654  141.8854  157.5666 C.ar    1  UNL1        0.1054
     14 C         144.7318  141.4381  158.9733 C.ar    1  UNL1        0.0181
     15 C         143.9921  142.0711  160.1144 C.ar    1  UNL1       -0.0012
     16 C         142.9860  143.1514  159.8487 C.ar    1  UNL1        0.0007
     17 C         142.2462  143.7844  160.9898 C.3     1  UNL1        0.1748
     18 S         145.2053  141.2524  156.4255 S.O2    1  UNL1        0.0104
     19 C         145.9450  140.6194  155.2844 C.3     1  UNL1        0.1816
     20 O         145.5126  142.6116  155.8706 O.2     1  UNL1       -0.1686
     21 O         144.8979  139.8931  156.9803 O.2     1  UNL1       -0.1686
     22 C         141.8796  141.8798  164.4522 C.ar    1  UNL1        0.0503
     23 C         140.9691  142.3139  165.5623 C.ar    1  UNL1        0.0144
     24 C         141.2355  141.8666  166.9691 C.ar    1  UNL1       -0.0002
     25 C         142.4123  140.9852  167.2657 C.ar    1  UNL1        0.0182
     26 C         143.3229  140.5510  166.1555 C.ar    1  UNL1       -0.0002
     27 C         143.0565  140.9984  164.7487 C.ar    1  UNL1        0.0144
     28 C         142.6787  140.5379  168.6724 C.3     1  UNL1        0.2827
     29 O         142.8761  139.1320  168.1880 O.3     1  UNL1       -0.3692
     30 H         142.5712  138.5102  168.8672 H       1  UNL1        0.2112
     31 C         142.9451  140.0906  170.0792 C.3     1  UNL1        0.4311
     32 F         143.2115  139.6432  171.4859 F       1  UNL1       -0.1669
     33 F         141.7794  139.1499  170.0008 F       1  UNL1       -0.1669
     34 F         143.6475  140.6097  170.2264 F       1  UNL1       -0.1669
     35 C         142.4814  141.9437  169.1568 C.3     1  UNL1        0.4311
     36 F         142.2840  143.3496  169.6412 F       1  UNL1       -0.1669
     37 F         141.7034  141.8112  169.5589 F       1  UNL1       -0.1669
     38 F         143.6981  142.6708  168.6662 F       1  UNL1       -0.1669
@<TRIPOS>BOND
     1     5     6    1
     2     6     7    2
     3     6     8   am
     4     8     9    1
     5     9    10    1
     6    10    11    1
     7    11    12   ar
     8    12    13   ar
     9    13    18    1
    10    18    19    1
    11    18    20    2
    12    18    21    2
    13    13    14   ar
    14    14    15   ar
    15    15    16   ar
    16    16    17    1
    17    17     1    1
    18     1     2    2
    19     1     3   am
    20     3    22    1
    21    22    23   ar
    22    23    24   ar
    23    24    25   ar
    24    25    28    1
    25    28    29    1
    26    28    31    1
    27    31    32    1
    28    31    33    1
    29    31    34    1
    30    28    35    1
    31    35    36    1
    32    35    37    1
    33    35    38    1
    34    25    26   ar
    35    26    27   ar
    36    17     8    1
    37    27    22   ar
    38    16    11   ar
    39     3     4    1
    40    29    30    1
@<TRIPOS>MOLECULE
*****
 38 40 0 0 0
SMALL
GASTEIGER

@<TRIPOS>ATOM
      1 C         142.5200  137.9095  157.6722 C.2     1  UNL1        0.2485
      2 O         143.7616  138.7085  157.4074 O.2     1  UNL1       -0.2726
      3 N         141.8402  138.0000  159.0063 N.am    1  UNL1       -0.2823
      4 H         141.0253  137.4756  159.1801 H       1  UNL1        0.1549
      5 C         139.3904  139.4861  154.8490 C.3     1  UNL1        0.0948
      6 C         140.4336  138.9606  155.7901 C.2     1  UNL1        0.2267
      7 O         140.9954  139.8500  156.8593 O.2     1  UNL1       -0.2748
      8 N         140.9149  137.5456  155.6619 N.am    1  UNL1       -0.2693
      9 C         140.3531  136.6563  154.5926 C.3     1  UNL1        0.0988
     10 C         140.8344  135.2414  154.4644 C.3     1  UNL1        0.0476
     11 C         141.8776  134.7159  155.4055 C.ar    1  UNL1       -0.0211
     12 C         142.3589  133.3010  155.2773 C.ar    1  UNL1        0.0139
     13 C         143.4020  132.7755  156.2184 C.ar    1  UNL1        0.1054
     14 C         143.9639  133.6649  157.2877 C.ar    1  UNL1        0.0181
     15 C         143.4826  135.0797  157.4159 C.ar    1  UNL1       -0.0012
     16 C         142.4394  135.6052  156.4748 C.ar    1  UNL1        0.0007
     17 C         141.9581  137.0202  156.6030 C.3     1  UNL1        0.1748
     18 S         143.8834  131.3606  156.0902 S.O2    1  UNL1        0.0104
     19 C         144.3647  129.9457  155.9621 C.3     1  UNL1        0.1816
     20 O         145.3040  131.8397  156.1354 O.2     1  UNL1       -0.1686
     21 O         142.4627  130.8814  156.0451 O.2     1  UNL1       -0.1686
     22 C         142.4021  138.8894  160.0755 C.ar    1  UNL1        0.0503
     23 C         141.7788  140.2274  160.3423 C.ar    1  UNL1        0.0144
     24 C         142.3406  141.1167  161.4116 C.ar    1  UNL1       -0.0002
     25 C         143.5258  140.6681  162.2141 C.ar    1  UNL1        0.0182
     26 C         144.1492  139.3301  161.9473 C.ar    1  UNL1       -0.0002
     27 C         143.5873  138.4407  160.8781 C.ar    1  UNL1        0.0144
     28 C         144.0877  141.5575  163.2833 C.3     1  UNL1        0.2827
     29 O         144.4353  142.5843  162.2466 O.3     1  UNL1       -0.3692
     30 H         145.2434  143.0507  162.5117 H       1  UNL1        0.2112
     31 C         144.6495  142.4469  164.3526 C.3     1  UNL1        0.4311
     32 F         145.2114  143.3362  165.4219 F       1  UNL1       -0.1669
     33 F         146.0382  142.1520  163.8682 F       1  UNL1       -0.1669
     34 F         143.8761  142.6837  164.7135 F       1  UNL1       -0.1669
     35 C         143.7400  140.5307  164.3201 C.3     1  UNL1        0.4311
     36 F         143.3924  139.5039  165.3568 F       1  UNL1       -0.1669
     37 F         142.8629  140.6530  164.3033 F       1  UNL1       -0.1669
     38 F         145.0665  139.9574  164.7222 F       1  UNL1       -0.1669
@<TRIPOS>BOND
     1     5     6    1
     2     6     7    2
     3     6     8   am
     4     8     9    1
     5     9    10    1
     6    10    11    1
     7    11    12   ar
     8    12    13   ar
     9    13    18    1
    10    18    19    1
    11    18    20    2
    12    18    21    2
    13    13    14   ar
    14    14    15   ar
    15    15    16   ar
    16    16    17    1
    17    17     1    1
    18     1     2    2
    19     1     3   am
    20     3    22    1
    21    22    23   ar
    22    23    24   ar
    23    24    25   ar
    24    25    28    1
    25    28    29    1
    26    28    31    1
    27    31    32    1
    28    31    33    1
    29    31    34    1
    30    28    35    1
    31    35    36    1
    32    35    37    1
    33    35    38    1
    34    25    26   ar
    35    26    27   ar
    36    17     8    1
    37    27    22   ar
    38    16    11   ar
    39     3     4    1
    40    29    30    1
@<TRIPOS>MOLECULE
*****
 38 40 0 0 0
SMALL
GASTEIGER

@<TRIPOS>ATOM
      1 C         142.4986  137.9664  157.8262 C.2     1  UNL1        0.2485
      2 O         143.7297  138.7804  157.5579 O.2     1  UNL1       -0.2726
      3 N         141.8268  138.0417  159.1652 N.am    1  UNL1       -0.2823
      4 H         141.0188  137.5074  159.3412 H       1  UNL1        0.1549
      5 C         139.3323  139.5247  155.0340 C.3     1  UNL1        0.0948
      6 C         140.3877  139.0053  155.9647 C.2     1  UNL1        0.2267
      7 O         140.9470  139.8945  157.0355 O.2     1  UNL1       -0.2748
      8 N         140.8839  137.5966  155.8247 N.am    1  UNL1       -0.2693
      9 C         140.3247  136.7075  154.7539 C.3     1  UNL1        0.0988
     10 C         140.8208  135.2989  154.6138 C.3     1  UNL1        0.0476
     11 C         141.8763  134.7794  155.5446 C.ar    1  UNL1       -0.0211
     12 C         142.3724  133.3708  155.4045 C.ar    1  UNL1        0.0139
     13 C         143.4278  132.8514  156.3352 C.ar    1  UNL1        0.1054
     14 C         143.9871  133.7406  157.4060 C.ar    1  UNL1        0.0181
     15 C         143.4909  135.1492  157.5461 C.ar    1  UNL1       -0.0012
     16 C         142.4355  135.6686  156.6153 C.ar    1  UNL1        0.0007
     17 C         141.9393  137.0772  156.7554 C.3     1  UNL1        0.1748
     18 S         143.9240  131.4427  156.1952 S.O2    1  UNL1        0.0104
     19 C         144.4201  130.0341  156.0551 C.3     1  UNL1        0.1816
     20 O         145.3396  131.9362  156.2463 O.2     1  UNL1       -0.1686
     21 O         142.5085  130.9492  156.1440 O.2     1  UNL1       -0.1686
     22 C         142.3861  138.9308  160.2360 C.ar    1  UNL1        0.0503
     23 C         143.5636  138.4783  161.0474 C.ar    1  UNL1        0.0144
     24 C         144.1229  139.3674  162.1182 C.ar    1  UNL1       -0.0002
     25 C         143.5046  140.7092  162.3775 C.ar    1  UNL1        0.0182
     26 C         142.3270  141.1618  161.5661 C.ar    1  UNL1       -0.0002
     27 C         141.7677  140.2727  160.4953 C.ar    1  UNL1        0.0144
     28 C         144.0639  141.5984  163.4483 C.3     1  UNL1        0.2827
     29 O         143.6011  140.6288  164.4951 O.3     1  UNL1       -0.3692
     30 H         143.3536  141.1136  165.2980 H       1  UNL1        0.2112
     31 C         144.6231  142.4875  164.5191 C.3     1  UNL1        0.4311
     32 F         145.1824  143.3767  165.5899 F       1  UNL1       -0.1669
     33 F         143.2347  142.7633  165.0153 F       1  UNL1       -0.1669
     34 F         145.4771  142.3900  164.3054 F       1  UNL1       -0.1669
     35 C         144.5266  142.5679  162.4015 C.3     1  UNL1        0.4311
     36 F         144.9894  143.5375  161.3547 F       1  UNL1       -0.1669
     37 F         145.1598  142.0562  162.0527 F       1  UNL1       -0.1669
     38 F         143.6454  143.7653  162.6010 F       1  UNL1       -0.1669
@<TRIPOS>BOND
     1     5     6    1
     2     6     7    2
     3     6     8   am
     4     8     9    1
     5     9    10    1
     6    10    11    1
     7    11    12   ar
     8    12    13   ar
     9    13    18    1
    10    18    19    1
    11    18    20    2
    12    18    21    2
    13    13    14   ar
    14    14    15   ar
    15    15    16   ar
    16    16    17    1
    17    17     1    1
    18     1     2    2
    19     1     3   am
    20     3    22    1
    21    22    23   ar
    22    23    24   ar
    23    24    25   ar
    24    25    28    1
    25    28    29    1
    26    28    31    1
    27    31    32    1
    28    31    33    1
    29    31    34    1
    30    28    35    1
    31    35    36    1
    32    35    37    1
    33    35    38    1
    34    25    26   ar
    35    26    27   ar
    36    17     8    1
    37    27    22   ar
    38    16    11   ar
    39     3     4    1
    40    29    30    1
@<TRIPOS>MOLECULE
*****
 38 40 0 0 0
SMALL
GASTEIGER

@<TRIPOS>ATOM
      1 C         142.4940  138.1466  157.1257 C.2     1  UNL1        0.2485
      2 O         141.3098  138.3360  158.0268 O.2     1  UNL1       -0.2726
      3 N         143.7165  138.9970  157.3050 N.am    1  UNL1       -0.2823
      4 H         144.4937  138.8727  156.7135 H       1  UNL1        0.1549
      5 C         141.1566  139.2615  152.9762 C.3     1  UNL1        0.0948
      6 C         141.6024  138.8899  154.3593 C.2     1  UNL1        0.2267
      7 O         141.6408  139.9298  155.4397 O.2     1  UNL1       -0.2748
      8 N         142.0098  137.4783  154.6622 N.am    1  UNL1       -0.2693
      9 C         141.9713  136.4385  153.5819 C.3     1  UNL1        0.0988
     10 C         142.3787  135.0270  153.8846 C.3     1  UNL1        0.0476
     11 C         142.8245  134.6553  155.2679 C.ar    1  UNL1       -0.0211
     12 C         143.2318  133.2438  155.5707 C.ar    1  UNL1        0.0139
     13 C         143.6776  132.8722  156.9538 C.ar    1  UNL1        0.1054
     14 C         143.7160  133.9121  158.0342 C.ar    1  UNL1        0.0181
     15 C         143.3087  135.3236  157.7314 C.ar    1  UNL1       -0.0012
     16 C         142.8629  135.6952  156.3482 C.ar    1  UNL1        0.0007
     17 C         142.4555  137.1067  156.0454 C.3     1  UNL1        0.1748
     18 S         144.0849  131.4606  157.2567 S.O2    1  UNL1        0.0104
     19 C         144.4922  130.0491  157.5595 C.3     1  UNL1        0.1816
     20 O         145.3102  131.9650  157.9596 O.2     1  UNL1       -0.1686
     21 O         142.8596  130.9563  156.5537 O.2     1  UNL1       -0.1686
     22 C         143.7549  140.0369  158.3853 C.ar    1  UNL1        0.0503
     23 C         143.9563  141.4803  158.0302 C.ar    1  UNL1        0.0144
     24 C         143.9947  142.5202  159.1105 C.ar    1  UNL1       -0.0002
     25 C         143.8318  142.1167  160.5460 C.ar    1  UNL1        0.0182
     26 C         143.6304  140.6733  160.9012 C.ar    1  UNL1       -0.0002
     27 C         143.5920  139.6334  159.8208 C.ar    1  UNL1        0.0144
     28 C         143.8702  143.1566  161.6264 C.3     1  UNL1        0.2827
     29 O         142.8097  143.9394  160.9106 O.3     1  UNL1       -0.3692
     30 H         142.9514  144.8873  161.0598 H       1  UNL1        0.2112
     31 C         143.9087  144.1965  162.7067 C.3     1  UNL1        0.4311
     32 F         143.9471  145.2363  163.7871 F       1  UNL1       -0.1669
     33 F         142.5461  143.7695  163.1662 F       1  UNL1       -0.1669
     34 F         144.7100  144.5216  162.5152 F       1  UNL1       -0.1669
     35 C         144.9308  142.3738  162.3421 C.3     1  UNL1        0.4311
     36 F         145.9914  141.5909  163.0579 F       1  UNL1       -0.1669
     37 F         145.5620  142.4591  161.7266 F       1  UNL1       -0.1669
     38 F         144.2690  141.9498  163.6197 F       1  UNL1       -0.1669
@<TRIPOS>BOND
     1     5     6    1
     2     6     7    2
     3     6     8   am
     4     8     9    1
     5     9    10    1
     6    10    11    1
     7    11    12   ar
     8    12    13   ar
     9    13    18    1
    10    18    19    1
    11    18    20    2
    12    18    21    2
    13    13    14   ar
    14    14    15   ar
    15    15    16   ar
    16    16    17    1
    17    17     1    1
    18     1     2    2
    19     1     3   am
    20     3    22    1
    21    22    23   ar
    22    23    24   ar
    23    24    25   ar
    24    25    28    1
    25    28    29    1
    26    28    31    1
    27    31    32    1
    28    31    33    1
    29    31    34    1
    30    28    35    1
    31    35    36    1
    32    35    37    1
    33    35    38    1
    34    25    26   ar
    35    26    27   ar
    36    17     8    1
    37    27    22   ar
    38    16    11   ar
    39     3     4    1
    40    29    30    1
@<TRIPOS>MOLECULE
*****
 38 40 0 0 0
SMALL
GASTEIGER

@<TRIPOS>ATOM
      1 C         140.6239  142.0983  159.0169 C.2     1  UNL1        0.2485
      2 O         140.6236  143.1699  160.0666 O.2     1  UNL1       -0.2726
      3 N         140.2050  140.7020  159.3705 N.am    1  UNL1       -0.2823
      4 H         140.2052  139.9987  158.6816 H       1  UNL1        0.1549
      5 C         137.5437  143.3315  155.9769 C.3     1  UNL1        0.0948
      6 C         138.5704  142.9204  156.9903 C.2     1  UNL1        0.2267
      7 O         138.1513  142.5957  158.3934 O.2     1  UNL1       -0.2748
      8 N         140.0163  142.8340  156.6005 N.am    1  UNL1       -0.2693
      9 C         140.4355  143.1587  155.1973 C.3     1  UNL1        0.0988
     10 C         141.8813  143.0723  154.8074 C.3     1  UNL1        0.0476
     11 C         142.9081  142.6612  155.8208 C.ar    1  UNL1       -0.0211
     12 C         144.3540  142.5749  155.4309 C.ar    1  UNL1        0.0139
     13 C         145.3807  142.1638  156.4443 C.ar    1  UNL1        0.1054
     14 C         144.9615  141.8391  157.8474 C.ar    1  UNL1        0.0181
     15 C         143.5157  141.9255  158.2373 C.ar    1  UNL1       -0.0012
     16 C         142.4890  142.3366  157.2240 C.ar    1  UNL1        0.0007
     17 C         141.0430  142.4230  157.6138 C.3     1  UNL1        0.1748
     18 S         146.8266  142.0774  156.0545 S.O2    1  UNL1        0.0104
     19 C         148.2724  141.9910  155.6646 C.3     1  UNL1        0.1816
     20 O         147.2094  142.7944  157.3151 O.2     1  UNL1       -0.1686
     21 O         146.4438  141.3604  154.7938 O.2     1  UNL1       -0.1686
     22 C         139.7858  140.3773  160.7737 C.ar    1  UNL1        0.0503
     23 C         138.3314  140.2183  161.1041 C.ar    1  UNL1        0.0144
     24 C         137.9123  139.8936  162.5073 C.ar    1  UNL1       -0.0002
     25 C         138.9475  139.7280  163.5800 C.ar    1  UNL1        0.0182
     26 C         140.4021  139.8870  163.2495 C.ar    1  UNL1       -0.0002
     27 C         140.8212  140.2117  161.8464 C.ar    1  UNL1        0.0144
     28 C         138.5284  139.4033  164.9832 C.3     1  UNL1        0.2827
     29 O         137.6733  140.6353  165.0128 O.3     1  UNL1       -0.3692
     30 H         137.6577  140.9964  165.9130 H       1  UNL1        0.2112
     31 C         138.1092  139.0786  166.3863 C.3     1  UNL1        0.4311
     32 F         137.6901  138.7539  167.7895 F       1  UNL1       -0.1669
     33 F         138.8557  140.2794  166.8872 F       1  UNL1       -0.1669
     34 F         137.6415  138.3515  166.1938 F       1  UNL1       -0.1669
     35 C         139.3835  138.1712  164.9535 C.3     1  UNL1        0.4311
     36 F         140.2385  136.9392  164.9238 F       1  UNL1       -0.1669
     37 F         139.9883  138.4454  165.5395 F       1  UNL1       -0.1669
     38 F         138.6909  137.2723  163.9725 F       1  UNL1       -0.1669
@<TRIPOS>BOND
     1     5     6    1
     2     6     7    2
     3     6     8   am
     4     8     9    1
     5     9    10    1
     6    10    11    1
     7    11    12   ar
     8    12    13   ar
     9    13    18    1
    10    18    19    1
    11    18    20    2
    12    18    21    2
    13    13    14   ar
    14    14    15   ar
    15    15    16   ar
    16    16    17    1
    17    17     1    1
    18     1     2    2
    19     1     3   am
    20     3    22    1
    21    22    23   ar
    22    23    24   ar
    23    24    25   ar
    24    25    28    1
    25    28    29    1
    26    28    31    1
    27    31    32    1
    28    31    33    1
    29    31    34    1
    30    28    35    1
    31    35    36    1
    32    35    37    1
    33    35    38    1
    34    25    26   ar
    35    26    27   ar
    36    17     8    1
    37    27    22   ar
    38    16    11   ar
    39     3     4    1
    40    29    30    1
@<TRIPOS>MOLECULE
*****
 38 40 0 0 0
SMALL
GASTEIGER

@<TRIPOS>ATOM
      1 C         143.2577  140.6877  158.5513 C.2     1  UNL1        0.2485
      2 O         143.6484  140.2082  159.9179 O.2     1  UNL1       -0.2726
      3 N         142.2255  141.7657  158.4014 N.am    1  UNL1       -0.2823
      4 H         141.9691  142.0804  157.5045 H       1  UNL1        0.1549
      5 C         146.7929  142.7157  156.6436 C.3     1  UNL1        0.0948
      6 C         145.6145  142.0397  157.2795 C.2     1  UNL1        0.2267
      7 O         144.9730  142.6383  158.4961 O.2     1  UNL1       -0.2748
      8 N         145.0776  140.7651  156.6988 N.am    1  UNL1       -0.2693
      9 C         145.7191  140.1666  155.4821 C.3     1  UNL1        0.0988
     10 C         145.1822  138.8921  154.9014 C.3     1  UNL1        0.0476
     11 C         144.0038  138.2160  155.5373 C.ar    1  UNL1       -0.0211
     12 C         143.4669  136.9415  154.9566 C.ar    1  UNL1        0.0139
     13 C         142.2885  136.2655  155.5924 C.ar    1  UNL1        0.1054
     14 C         141.6470  136.8640  156.8091 C.ar    1  UNL1        0.0181
     15 C         142.1839  138.1386  157.3898 C.ar    1  UNL1       -0.0012
     16 C         143.3622  138.8146  156.7539 C.ar    1  UNL1        0.0007
     17 C         143.8992  140.0892  157.3347 C.3     1  UNL1        0.1748
     18 S         141.7516  134.9909  155.0117 S.O2    1  UNL1        0.0104
     19 C         141.2146  133.7164  154.4310 C.3     1  UNL1        0.1816
     20 O         143.1111  134.3672  155.1236 O.2     1  UNL1       -0.1686
     21 O         140.3920  135.6146  154.8999 O.2     1  UNL1       -0.1686
     22 C         141.5840  142.3642  159.6180 C.ar    1  UNL1        0.0503
     23 C         140.1708  142.0079  159.9729 C.ar    1  UNL1        0.0144
     24 C         139.5293  142.6064  161.1895 C.ar    1  UNL1       -0.0002
     25 C         140.3009  143.5613  162.0513 C.ar    1  UNL1        0.0182
     26 C         141.7142  143.9177  161.6965 C.ar    1  UNL1       -0.0002
     27 C         142.3557  143.3192  160.4798 C.ar    1  UNL1        0.0144
     28 C         139.6594  144.1599  163.2679 C.3     1  UNL1        0.2827
     29 O         139.6407  142.8102  163.9221 O.3     1  UNL1       -0.3692
     30 H         138.8597  142.7382  164.4928 H       1  UNL1        0.2112
     31 C         139.0179  144.7584  164.4845 C.3     1  UNL1        0.4311
     32 F         138.3764  145.3570  165.7012 F       1  UNL1       -0.1669
     33 F         137.6902  144.2081  164.0552 F       1  UNL1       -0.1669
     34 F         139.7498  145.1241  164.8238 F       1  UNL1       -0.1669
     35 C         139.6781  145.5096  162.6138 C.3     1  UNL1        0.4311
     36 F         139.6968  146.8593  161.9596 F       1  UNL1       -0.1669
     37 F         138.8781  145.4582  162.2373 F       1  UNL1       -0.1669
     38 F         141.0094  146.0820  163.0008 F       1  UNL1       -0.1669
@<TRIPOS>BOND
     1     5     6    1
     2     6     7    2
     3     6     8   am
     4     8     9    1
     5     9    10    1
     6    10    11    1
     7    11    12   ar
     8    12    13   ar
     9    13    18    1
    10    18    19    1
    11    18    20    2
    12    18    21    2
    13    13    14   ar
    14    14    15   ar
    15    15    16   ar
    16    16    17    1
    17    17     1    1
    18     1     2    2
    19     1     3   am
    20     3    22    1
    21    22    23   ar
    22    23    24   ar
    23    24    25   ar
    24    25    28    1
    25    28    29    1
    26    28    31    1
    27    31    32    1
    28    31    33    1
    29    31    34    1
    30    28    35    1
    31    35    36    1
    32    35    37    1
    33    35    38    1
    34    25    26   ar
    35    26    27   ar
    36    17     8    1
    37    27    22   ar
    38    16    11   ar
    39     3     4    1
    40    29    30    1
@<TRIPOS>MOLECULE
*****
 38 40 0 0 0
SMALL
GASTEIGER

@<TRIPOS>ATOM
      1 C         141.4846  141.3754  161.5844 C.2     1  UNL1        0.2485
      2 O         142.7436  141.5114  162.3885 O.2     1  UNL1       -0.2726
      3 N         140.1930  141.0324  162.2656 N.am    1  UNL1       -0.2823
      4 H         139.3667  140.9432  161.7378 H       1  UNL1        0.1549
      5 C         140.3588  145.3695  159.8438 C.3     1  UNL1        0.0948
      6 C         140.7341  144.0381  160.4240 C.2     1  UNL1        0.2267
      7 O         140.7014  143.8312  161.9093 O.2     1  UNL1       -0.2748
      8 N         141.1421  142.9136  159.5189 N.am    1  UNL1       -0.2693
      9 C         141.1748  143.1206  158.0336 C.3     1  UNL1        0.0988
     10 C         141.5828  141.9962  157.1285 C.3     1  UNL1        0.0476
     11 C         141.9580  140.6648  157.7087 C.ar    1  UNL1       -0.0211
     12 C         142.3660  139.5404  156.8036 C.ar    1  UNL1        0.0139
     13 C         142.7413  138.2090  157.3838 C.ar    1  UNL1        0.1054
     14 C         142.7086  138.0021  158.8691 C.ar    1  UNL1        0.0181
     15 C         142.3006  139.1265  159.7742 C.ar    1  UNL1       -0.0012
     16 C         141.9253  140.4578  159.1940 C.ar    1  UNL1        0.0007
     17 C         141.5173  141.5823  160.0991 C.3     1  UNL1        0.1748
     18 S         143.1493  137.0846  156.4787 S.O2    1  UNL1        0.0104
     19 C         143.5573  135.9602  155.5736 C.3     1  UNL1        0.1816
     20 O         141.9334  136.3099  156.8929 O.2     1  UNL1       -0.1686
     21 O         144.3651  137.8592  156.0644 O.2     1  UNL1       -0.1686
     22 C         140.1603  140.8255  163.7509 C.ar    1  UNL1        0.0503
     23 C         140.3527  139.4515  164.3211 C.ar    1  UNL1        0.0144
     24 C         140.3200  139.2446  165.8064 C.ar    1  UNL1       -0.0002
     25 C         140.0949  140.4116  166.7215 C.ar    1  UNL1        0.0182
     26 C         139.9025  141.7856  166.1513 C.ar    1  UNL1       -0.0002
     27 C         139.9352  141.9926  164.6660 C.ar    1  UNL1        0.0144
     28 C         140.0622  140.2046  168.2068 C.3     1  UNL1        0.2827
     29 O         138.8017  139.4036  168.0674 O.3     1  UNL1       -0.3692
     30 H         138.2445  139.5387  168.8498 H       1  UNL1        0.2112
     31 C         140.0295  139.9977  169.6921 C.3     1  UNL1        0.4311
     32 F         139.9968  139.7908  171.1774 F       1  UNL1       -0.1669
     33 F         138.8218  140.8821  169.7887 F       1  UNL1       -0.1669
     34 F         140.7349  139.4645  169.7424 F       1  UNL1       -0.1669
     35 C         141.3227  141.0057  168.3461 C.3     1  UNL1        0.4311
     36 F         142.5832  141.8068  168.4855 F       1  UNL1       -0.1669
     37 F         140.9562  141.7191  168.7220 F       1  UNL1       -0.1669
     38 F         142.3845  140.1140  167.7742 F       1  UNL1       -0.1669
@<TRIPOS>BOND
     1     5     6    1
     2     6     7    2
     3     6     8   am
     4     8     9    1
     5     9    10    1
     6    10    11    1
     7    11    12   ar
     8    12    13   ar
     9    13    18    1
    10    18    19    1
    11    18    20    2
    12    18    21    2
    13    13    14   ar
    14    14    15   ar
    15    15    16   ar
    16    16    17    1
    17    17     1    1
    18     1     2    2
    19     1     3   am
    20     3    22    1
    21    22    23   ar
    22    23    24   ar
    23    24    25   ar
    24    25    28    1
    25    28    29    1
    26    28    31    1
    27    31    32    1
    28    31    33    1
    29    31    34    1
    30    28    35    1
    31    35    36    1
    32    35    37    1
    33    35    38    1
    34    25    26   ar
    35    26    27   ar
    36    17     8    1
    37    27    22   ar
    38    16    11   ar
    39     3     4    1
    40    29    30    1
@<TRIPOS>MOLECULE
*****
 38 40 0 0 0
SMALL
GASTEIGER

@<TRIPOS>ATOM
      1 C         142.5219  138.9300  159.1556 C.2     1  UNL1        0.2485
      2 O         143.2570  138.1590  160.2118 O.2     1  UNL1       -0.2726
      3 N         141.2095  139.5805  159.4786 N.am    1  UNL1       -0.2823
      4 H         140.7271  140.0865  158.7855 H       1  UNL1        0.1549
      5 C         145.0572  142.4891  158.0808 C.3     1  UNL1        0.0948
      6 C         144.2121  141.3028  158.4391 C.2     1  UNL1        0.2267
      7 O         143.6346  141.1823  159.8182 O.2     1  UNL1       -0.2748
      8 N         143.9445  140.2368  157.4182 N.am    1  UNL1       -0.2693
      9 C         144.5219  140.3572  156.0391 C.3     1  UNL1        0.0988
     10 C         144.2543  139.2913  155.0182 C.3     1  UNL1        0.0476
     11 C         143.4092  138.1049  155.3764 C.ar    1  UNL1       -0.0211
     12 C         143.1416  137.0390  154.3556 C.ar    1  UNL1        0.0139
     13 C         142.2966  135.8527  154.7138 C.ar    1  UNL1        0.1054
     14 C         141.7191  135.7322  156.0930 C.ar    1  UNL1        0.0181
     15 C         141.9867  136.7981  157.1139 C.ar    1  UNL1       -0.0012
     16 C         142.8318  137.9845  156.7556 C.ar    1  UNL1        0.0007
     17 C         143.0994  139.0504  157.7765 C.3     1  UNL1        0.1748
     18 S         142.0289  134.7867  153.6930 S.O2    1  UNL1        0.0104
     19 C         141.7613  133.7208  152.6722 C.3     1  UNL1        0.1816
     20 O         141.8271  135.8408  152.6451 O.2     1  UNL1       -0.1686
     21 O         142.2307  133.7326  154.7408 O.2     1  UNL1       -0.1686
     22 C         140.6321  139.4600  160.8578 C.ar    1  UNL1        0.0503
     23 C         139.6593  138.3619  161.1703 C.ar    1  UNL1        0.0144
     24 C         139.0818  138.2414  162.5494 C.ar    1  UNL1       -0.0002
     25 C         139.4772  139.2191  163.6161 C.ar    1  UNL1        0.0182
     26 C         140.4500  140.3173  163.3036 C.ar    1  UNL1       -0.0002
     27 C         141.0275  140.4378  161.9245 C.ar    1  UNL1        0.0144
     28 C         138.8997  139.0986  164.9952 C.3     1  UNL1        0.2827
     29 O         139.5569  137.7596  165.1534 O.3     1  UNL1       -0.3692
     30 H         138.9998  137.1892  165.7059 H       1  UNL1        0.2112
     31 C         138.3223  138.9782  166.3744 C.3     1  UNL1        0.4311
     32 F         137.7448  138.8577  167.7535 F       1  UNL1       -0.1669
     33 F         139.6801  139.2200  166.9640 F       1  UNL1       -0.1669
     34 F         137.4849  138.8278  166.1281 F       1  UNL1       -0.1669
     35 C         138.2425  140.4377  164.8370 C.3     1  UNL1        0.4311
     36 F         137.5853  141.7767  164.6788 F       1  UNL1       -0.1669
     37 F         137.6620  140.1999  164.2118 F       1  UNL1       -0.1669
     38 F         138.9663  141.3150  165.8150 F       1  UNL1       -0.1669
@<TRIPOS>BOND
     1     5     6    1
     2     6     7    2
     3     6     8   am
     4     8     9    1
     5     9    10    1
     6    10    11    1
     7    11    12   ar
     8    12    13   ar
     9    13    18    1
    10    18    19    1
    11    18    20    2
    12    18    21    2
    13    13    14   ar
    14    14    15   ar
    15    15    16   ar
    16    16    17    1
    17    17     1    1
    18     1     2    2
    19     1     3   am
    20     3    22    1
    21    22    23   ar
    22    23    24   ar
    23    24    25   ar
    24    25    28    1
    25    28    29    1
    26    28    31    1
    27    31    32    1
    28    31    33    1
    29    31    34    1
    30    28    35    1
    31    35    36    1
    32    35    37    1
    33    35    38    1
    34    25    26   ar
    35    26    27   ar
    36    17     8    1
    37    27    22   ar
    38    16    11   ar
    39     3     4    1
    40    29    30    1
@<TRIPOS>MOLECULE
*****
 38 40 0 0 0
SMALL
GASTEIGER

@<TRIPOS>ATOM
      1 C         140.9658  142.1580  162.5744 C.2     1  UNL1        0.2485
      2 O         142.4009  142.2143  163.0072 O.2     1  UNL1       -0.2726
      3 N         139.8904  141.8667  163.5787 N.am    1  UNL1       -0.2823
      4 H         138.9485  141.8297  163.2947 H       1  UNL1        0.1549
      5 C         139.6834  146.2521  161.2165 C.3     1  UNL1        0.0948
      6 C         140.1108  144.8874  161.6691 C.2     1  UNL1        0.2267
      7 O         140.4705  144.6524  163.1063 O.2     1  UNL1       -0.2748
      8 N         140.1786  143.7577  160.6846 N.am    1  UNL1       -0.2693
      9 C         139.8189  143.9927  159.2475 C.3     1  UNL1        0.0988
     10 C         139.8867  142.8630  158.2630 C.3     1  UNL1        0.0476
     11 C         140.3142  141.4983  158.7156 C.ar    1  UNL1       -0.0211
     12 C         140.3820  140.3687  157.7311 C.ar    1  UNL1        0.0139
     13 C         140.8094  139.0040  158.1838 C.ar    1  UNL1        0.1054
     14 C         141.1691  138.7690  159.6209 C.ar    1  UNL1        0.0181
     15 C         141.1014  139.8986  160.6054 C.ar    1  UNL1       -0.0012
     16 C         140.6739  141.2633  160.1528 C.ar    1  UNL1        0.0007
     17 C         140.6061  142.3930  161.1373 C.3     1  UNL1        0.1748
     18 S         140.8772  137.8743  157.1993 S.O2    1  UNL1        0.0104
     19 C         140.9450  136.7446  156.2148 C.3     1  UNL1        0.1816
     20 O         142.3752  137.9493  157.2163 O.2     1  UNL1       -0.1686
     21 O         139.3792  137.7993  157.1822 O.2     1  UNL1       -0.1686
     22 C         140.2501  141.6317  165.0159 C.ar    1  UNL1        0.0503
     23 C         140.2875  142.7822  165.9775 C.ar    1  UNL1        0.0144
     24 C         140.6472  142.5472  167.4146 C.ar    1  UNL1       -0.0002
     25 C         140.9695  141.1617  167.8902 C.ar    1  UNL1        0.0182
     26 C         140.9322  140.0110  166.9285 C.ar    1  UNL1       -0.0002
     27 C         140.5725  140.2460  165.4914 C.ar    1  UNL1        0.0144
     28 C         141.3292  140.9266  169.3273 C.3     1  UNL1        0.2827
     29 O         142.7785  141.1289  168.9977 O.3     1  UNL1       -0.3692
     30 H         143.3221  140.5667  169.5715 H       1  UNL1        0.2112
     31 C         141.6889  140.6916  170.7645 C.3     1  UNL1        0.4311
     32 F         142.0486  140.4566  172.2016 F       1  UNL1       -0.1669
     33 F         142.1573  139.3086  170.4211 F       1  UNL1       -0.1669
     34 F         141.4404  141.4853  171.0692 F       1  UNL1       -0.1669
     35 C         139.8800  140.7244  169.6570 C.3     1  UNL1        0.4311
     36 F         138.4307  140.5221  169.9866 F       1  UNL1       -0.1669
     37 F         139.8603  139.8488  169.5245 F       1  UNL1       -0.1669
     38 F         139.3892  142.1008  169.9953 F       1  UNL1       -0.1669
@<TRIPOS>BOND
     1     5     6    1
     2     6     7    2
     3     6     8   am
     4     8     9    1
     5     9    10    1
     6    10    11    1
     7    11    12   ar
     8    12    13   ar
     9    13    18    1
    10    18    19    1
    11    18    20    2
    12    18    21    2
    13    13    14   ar
    14    14    15   ar
    15    15    16   ar
    16    16    17    1
    17    17     1    1
    18     1     2    2
    19     1     3   am
    20     3    22    1
    21    22    23   ar
    22    23    24   ar
    23    24    25   ar
    24    25    28    1
    25    28    29    1
    26    28    31    1
    27    31    32    1
    28    31    33    1
    29    31    34    1
    30    28    35    1
    31    35    36    1
    32    35    37    1
    33    35    38    1
    34    25    26   ar
    35    26    27   ar
    36    17     8    1
    37    27    22   ar
    38    16    11   ar
    39     3     4    1
    40    29    30    1
