@<TRIPOS>MOLECULE
*****
 29 32 0 0 0
SMALL
GASTEIGER

@<TRIPOS>ATOM
      1 C         139.2478  138.2489  164.5211 C.2     1  UNL1        0.0572
      2 C         138.3895  137.4997  165.4969 C.2     1  UNL1        0.0037
      3 C         138.1725  138.0448  166.8773 C.2     1  UNL1        0.0139
      4 C         138.8136  139.3391  167.2821 C.2     1  UNL1        0.0428
      5 C         139.6718  140.0883  166.3063 C.2     1  UNL1        0.0187
      6 C         140.4280  141.3788  166.4193 C.2     1  UNL1        0.0178
      7 C         141.1124  141.6312  165.1087 C.2     1  UNL1        0.0765
      8 N         140.7793  140.4968  164.1856 N.2     1  UNL1       -0.2633
      9 C         139.8889  139.5432  164.9258 C.3     1  UNL1        0.1532
     10 C         141.9781  142.8110  164.7790 C.ar    1  UNL1        0.0172
     11 C         141.3897  144.0012  164.0809 C.ar    1  UNL1        0.0015
     12 C         142.2555  145.1810  163.7512 C.ar    1  UNL1        0.0000
     13 C         143.7095  145.1706  164.1195 C.ar    1  UNL1        0.0000
     14 C         144.2979  143.9805  164.8176 C.ar    1  UNL1        0.0000
     15 C         143.4321  142.8007  165.1473 C.ar    1  UNL1        0.0015
     16 N         138.3469  137.7268  162.1408 N.am    1  UNL1       -0.3255
     17 C         139.4648  137.7038  163.1406 C.2     1  UNL1        0.2409
     18 O         140.7999  137.1356  162.7599 O.2     1  UNL1       -0.2706
     19 H         138.4894  137.3691  161.2347 H       1  UNL1        0.1452
     20 H         137.4707  138.0997  162.3906 H       1  UNL1        0.1452
     21 N         138.5964  139.8841  168.6626 N.pl3   1  UNL1       -0.3330
     22 H         137.6954  139.8755  169.0592 H       1  UNL1        0.1468
     23 C         139.7522  140.4424  169.4389 C.3     1  UNL1        0.0849
     24 C         141.0157  139.6463  169.5792 C.3     1  UNL1        0.0223
     25 C         142.1715  140.2045  170.3555 C.3     1  UNL1        0.0188
     26 C         142.0637  141.5587  170.9915 C.3     1  UNL1        0.0687
     27 N         140.8001  142.3548  170.8511 N.3     1  UNL1       -0.2961
     28 C         139.6443  141.7966  170.0749 C.3     1  UNL1        0.0883
     29 H         141.0554  143.2364  170.4061 H       1  UNL1        0.1233
@<TRIPOS>BOND
     1    16    17   am
     2    17    18    2
     3    17     1    1
     4     1     2    2
     5     2     3    1
     6     3     4    2
     7     4    21    1
     8    23    21    1
     9    23    24    1
    10    24    25    1
    11    25    26    1
    12    26    27    1
    13    27    28    1
    14     4     5    1
    15     5     6    2
    16     6     7    1
    17     7    10    1
    18    10    11   ar
    19    11    12   ar
    20    12    13   ar
    21    13    14   ar
    22    14    15   ar
    23     7     8    2
    24     8     9    1
    25     9     1    1
    26    28    23    1
    27     9     5    1
    28    15    10   ar
    29    16    19    1
    30    16    20    1
    31    21    22    1
    32    27    29    1
@<TRIPOS>MOLECULE
*****
 29 32 0 0 0
SMALL
GASTEIGER

@<TRIPOS>ATOM
      1 C         139.4160  144.1758  162.5049 C.2     1  UNL1        0.0572
      2 C         138.6381  143.4741  161.4314 C.2     1  UNL1        0.0037
      3 C         138.1877  142.0580  161.6355 C.2     1  UNL1        0.0139
      4 C         138.5152  141.3435  162.9132 C.2     1  UNL1        0.0428
      5 C         139.2931  142.0452  163.9867 C.2     1  UNL1        0.0187
      6 C         139.7609  141.6006  165.3407 C.2     1  UNL1        0.0178
      7 C         140.5004  142.7419  165.9734 C.2     1  UNL1        0.0765
      8 N         140.4897  143.8920  165.0104 N.2     1  UNL1       -0.2633
      9 C         139.7435  143.4614  163.7825 C.3     1  UNL1        0.1532
     10 C         141.1387  142.7346  167.3308 C.ar    1  UNL1        0.0172
     11 C         142.5484  142.2489  167.4942 C.ar    1  UNL1        0.0015
     12 C         143.1866  142.2416  168.8517 C.ar    1  UNL1        0.0000
     13 C         142.4151  142.7200  170.0458 C.ar    1  UNL1        0.0000
     14 C         141.0054  143.2057  169.8824 C.ar    1  UNL1        0.0000
     15 C         140.3672  143.2130  168.5250 C.ar    1  UNL1        0.0015
     16 N         141.0519  146.1179  163.0544 N.am    1  UNL1       -0.3255
     17 C         139.8664  145.5919  162.3008 C.2     1  UNL1        0.2409
     18 O         139.1313  146.4821  161.3430 O.2     1  UNL1       -0.2706
     19 H         141.3475  147.0474  162.9204 H       1  UNL1        0.1452
     20 H         141.5344  145.5337  163.6830 H       1  UNL1        0.1452
     21 N         138.0647  139.9273  163.1172 N.pl3   1  UNL1       -0.3330
     22 H         137.1044  139.7104  163.1102 H       1  UNL1        0.1468
     23 C         139.0773  138.8418  163.3320 C.3     1  UNL1        0.0849
     24 C         139.2292  138.2152  164.6864 C.3     1  UNL1        0.0223
     25 C         140.2417  137.1296  164.9013 C.3     1  UNL1        0.0188
     26 C         141.1024  136.6706  163.7618 C.3     1  UNL1        0.0687
     27 N         140.9506  137.2972  162.4074 N.3     1  UNL1       -0.2961
     28 C         139.9380  138.3828  162.1925 C.3     1  UNL1        0.0883
     29 H         140.7176  136.5448  161.7593 H       1  UNL1        0.1233
@<TRIPOS>BOND
     1    16    17   am
     2    17    18    2
     3    17     1    1
     4     1     2    2
     5     2     3    1
     6     3     4    2
     7     4    21    1
     8    23    21    1
     9    23    24    1
    10    24    25    1
    11    25    26    1
    12    26    27    1
    13    27    28    1
    14     4     5    1
    15     5     6    2
    16     6     7    1
    17     7    10    1
    18    10    11   ar
    19    11    12   ar
    20    12    13   ar
    21    13    14   ar
    22    14    15   ar
    23     7     8    2
    24     8     9    1
    25     9     1    1
    26    28    23    1
    27     9     5    1
    28    15    10   ar
    29    16    19    1
    30    16    20    1
    31    21    22    1
    32    27    29    1
@<TRIPOS>MOLECULE
*****
 29 32 0 0 0
SMALL
GASTEIGER

@<TRIPOS>ATOM
      1 C         140.6954  142.1614  169.6090 C.2     1  UNL1        0.0572
      2 C         139.4776  141.4897  170.1709 C.2     1  UNL1        0.0037
      3 C         138.8242  140.3693  169.4176 C.2     1  UNL1        0.0139
      4 C         139.3885  139.9205  168.1021 C.2     1  UNL1        0.0428
      5 C         140.6063  140.5923  167.5402 C.2     1  UNL1        0.0187
      6 C         141.3828  140.3685  166.2765 C.2     1  UNL1        0.0178
      7 C         142.5163  141.3506  166.2490 C.2     1  UNL1        0.0765
      8 N         142.4402  142.1814  167.4956 N.2     1  UNL1       -0.2633
      9 C         141.2597  141.7127  168.2936 C.3     1  UNL1        0.1532
     10 C         143.5452  141.4794  165.1651 C.ar    1  UNL1        0.0172
     11 C         144.2268  140.2556  164.6289 C.ar    1  UNL1        0.0015
     12 C         145.2558  140.3844  163.5450 C.ar    1  UNL1        0.0000
     13 C         145.6030  141.7370  162.9973 C.ar    1  UNL1        0.0000
     14 C         144.9213  142.9608  163.5336 C.ar    1  UNL1        0.0000
     15 C         143.8924  142.8320  164.6175 C.ar    1  UNL1        0.0015
     16 N         142.6173  143.0341  171.1238 N.am    1  UNL1       -0.3255
     17 C         141.3488  143.2818  170.3624 C.2     1  UNL1        0.2409
     18 O         140.7338  144.6500  170.3544 O.2     1  UNL1       -0.2706
     19 H         143.0461  143.7695  171.6183 H       1  UNL1        0.1452
     20 H         143.0209  142.1362  171.1291 H       1  UNL1        0.1452
     21 N         138.7350  138.8001  167.3488 N.pl3   1  UNL1       -0.3330
     22 H         138.3890  138.0165  167.8341 H       1  UNL1        0.1468
     23 C         138.6086  138.8735  165.8559 C.3     1  UNL1        0.0849
     24 C         139.0311  137.7094  165.0094 C.3     1  UNL1        0.0223
     25 C         138.9048  137.7827  163.5166 C.3     1  UNL1        0.0188
     26 C         138.3560  139.0201  162.8702 C.3     1  UNL1        0.0687
     27 N         137.9335  140.1841  163.7167 N.3     1  UNL1       -0.2961
     28 C         138.0598  140.1108  165.2096 C.3     1  UNL1        0.0883
     29 H         136.9488  140.3546  163.5125 H       1  UNL1        0.1233
@<TRIPOS>BOND
     1    16    17   am
     2    17    18    2
     3    17     1    1
     4     1     2    2
     5     2     3    1
     6     3     4    2
     7     4    21    1
     8    23    21    1
     9    23    24    1
    10    24    25    1
    11    25    26    1
    12    26    27    1
    13    27    28    1
    14     4     5    1
    15     5     6    2
    16     6     7    1
    17     7    10    1
    18    10    11   ar
    19    11    12   ar
    20    12    13   ar
    21    13    14   ar
    22    14    15   ar
    23     7     8    2
    24     8     9    1
    25     9     1    1
    26    28    23    1
    27     9     5    1
    28    15    10   ar
    29    16    19    1
    30    16    20    1
    31    21    22    1
    32    27    29    1
@<TRIPOS>MOLECULE
*****
 29 32 0 0 0
SMALL
GASTEIGER

@<TRIPOS>ATOM
      1 C         139.7953  141.1469  169.3617 C.2     1  UNL1        0.0572
      2 C         138.7991  140.0453  169.5715 C.2     1  UNL1        0.0037
      3 C         138.2353  139.3094  168.3924 C.2     1  UNL1        0.0139
      4 C         138.6676  139.6751  167.0033 C.2     1  UNL1        0.0428
      5 C         139.6638  140.7767  166.7935 C.2     1  UNL1        0.0187
      6 C         140.2740  141.3549  165.5512 C.2     1  UNL1        0.0178
      7 C         141.2149  142.4482  165.9626 C.2     1  UNL1        0.0765
      8 N         141.1863  142.5457  167.4591 N.2     1  UNL1       -0.2633
      9 C         140.2277  141.5126  167.9727 C.3     1  UNL1        0.1532
     10 C         142.0397  143.2953  165.0395 C.ar    1  UNL1        0.0172
     11 C         143.5141  143.0499  164.9129 C.ar    1  UNL1        0.0015
     12 C         144.3388  143.8971  163.9897 C.ar    1  UNL1        0.0000
     13 C         143.6893  144.9896  163.1933 C.ar    1  UNL1        0.0000
     14 C         142.2149  145.2350  163.3199 C.ar    1  UNL1        0.0000
     15 C         141.3902  144.3878  164.2430 C.ar    1  UNL1        0.0015
     16 N         140.6259  143.3560  170.4480 N.am    1  UNL1       -0.3255
     17 C         140.3592  141.8829  170.5409 C.2     1  UNL1        0.2409
     18 O         140.6564  141.1456  171.8130 O.2     1  UNL1       -0.2706
     19 H         140.9959  143.8390  171.2220 H       1  UNL1        0.1452
     20 H         140.4308  143.8399  169.6131 H       1  UNL1        0.1452
     21 N         138.1037  138.9391  165.8242 N.pl3   1  UNL1       -0.3330
     22 H         137.1363  138.7644  165.7696 H       1  UNL1        0.1468
     23 C         139.0136  138.4692  164.7282 C.3     1  UNL1        0.0849
     24 C         140.2224  137.6449  165.0588 C.3     1  UNL1        0.0223
     25 C         141.1324  137.1751  163.9628 C.3     1  UNL1        0.0188
     26 C         140.8336  137.5295  162.5363 C.3     1  UNL1        0.0687
     27 N         139.6248  138.3538  162.2057 N.3     1  UNL1       -0.2961
     28 C         138.7148  138.8237  163.3016 C.3     1  UNL1        0.0883
     29 H         139.0550  137.7981  161.5678 H       1  UNL1        0.1233
@<TRIPOS>BOND
     1    16    17   am
     2    17    18    2
     3    17     1    1
     4     1     2    2
     5     2     3    1
     6     3     4    2
     7     4    21    1
     8    23    21    1
     9    23    24    1
    10    24    25    1
    11    25    26    1
    12    26    27    1
    13    27    28    1
    14     4     5    1
    15     5     6    2
    16     6     7    1
    17     7    10    1
    18    10    11   ar
    19    11    12   ar
    20    12    13   ar
    21    13    14   ar
    22    14    15   ar
    23     7     8    2
    24     8     9    1
    25     9     1    1
    26    28    23    1
    27     9     5    1
    28    15    10   ar
    29    16    19    1
    30    16    20    1
    31    21    22    1
    32    27    29    1
@<TRIPOS>MOLECULE
*****
 29 32 0 0 0
SMALL
GASTEIGER

@<TRIPOS>ATOM
      1 C         138.9931  139.8717  167.9407 C.2     1  UNL1        0.0572
      2 C         138.0834  138.7224  167.6222 C.2     1  UNL1        0.0037
      3 C         137.8857  138.2947  166.1982 C.2     1  UNL1        0.0139
      4 C         138.5977  139.0164  165.0925 C.2     1  UNL1        0.0428
      5 C         139.5074  140.1657  165.4110 C.2     1  UNL1        0.0187
      6 C         140.3367  141.0609  164.5388 C.2     1  UNL1        0.0178
      7 C         141.0470  142.0418  165.4238 C.2     1  UNL1        0.0765
      8 N         140.6566  141.7529  166.8430 N.2     1  UNL1       -0.2633
      9 C         139.7051  140.5934  166.8351 C.3     1  UNL1        0.1532
     10 C         141.9832  143.1220  164.9694 C.ar    1  UNL1        0.0172
     11 C         143.4448  143.0337  165.2950 C.ar    1  UNL1        0.0015
     12 C         144.3810  144.1140  164.8405 C.ar    1  UNL1        0.0000
     13 C         143.8557  145.2826  164.0605 C.ar    1  UNL1        0.0000
     14 C         142.3942  145.3710  163.7349 C.ar    1  UNL1        0.0000
     15 C         141.4580  144.2906  164.1894 C.ar    1  UNL1        0.0015
     16 N         140.3949  141.1094  169.7443 N.am    1  UNL1       -0.3255
     17 C         139.1908  140.2994  169.3648 C.2     1  UNL1        0.2409
     18 O         138.1844  139.9171  170.4093 O.2     1  UNL1       -0.2706
     19 H         140.5247  141.3900  170.6790 H       1  UNL1        0.1452
     20 H         141.0554  141.3603  169.0588 H       1  UNL1        0.1452
     21 N         138.3999  138.5886  163.6684 N.pl3   1  UNL1       -0.3330
     22 H         137.4900  138.4664  163.3130 H       1  UNL1        0.1468
     23 C         139.5885  138.3470  162.7859 C.3     1  UNL1        0.0849
     24 C         139.7269  139.0948  161.4930 C.3     1  UNL1        0.0223
     25 C         140.9155  138.8532  160.6104 C.3     1  UNL1        0.0188
     26 C         141.9656  137.8639  161.0208 C.3     1  UNL1        0.0687
     27 N         141.8272  137.1161  162.3138 N.3     1  UNL1       -0.2961
     28 C         140.6386  137.3576  163.1963 C.3     1  UNL1        0.0883
     29 H         142.6550  137.3323  162.8690 H       1  UNL1        0.1233
@<TRIPOS>BOND
     1    16    17   am
     2    17    18    2
     3    17     1    1
     4     1     2    2
     5     2     3    1
     6     3     4    2
     7     4    21    1
     8    23    21    1
     9    23    24    1
    10    24    25    1
    11    25    26    1
    12    26    27    1
    13    27    28    1
    14     4     5    1
    15     5     6    2
    16     6     7    1
    17     7    10    1
    18    10    11   ar
    19    11    12   ar
    20    12    13   ar
    21    13    14   ar
    22    14    15   ar
    23     7     8    2
    24     8     9    1
    25     9     1    1
    26    28    23    1
    27     9     5    1
    28    15    10   ar
    29    16    19    1
    30    16    20    1
    31    21    22    1
    32    27    29    1
@<TRIPOS>MOLECULE
*****
 29 32 0 0 0
SMALL
GASTEIGER

@<TRIPOS>ATOM
      1 C         141.2436  141.3023  169.3664 C.2     1  UNL1        0.0572
      2 C         141.9788  140.0679  169.7972 C.2     1  UNL1        0.0037
      3 C         142.6925  139.2270  168.7807 C.2     1  UNL1        0.0139
      4 C         142.6711  139.6204  167.3333 C.2     1  UNL1        0.0428
      5 C         141.9359  140.8549  166.9026 C.2     1  UNL1        0.0187
      6 C         141.7410  141.4889  165.5572 C.2     1  UNL1        0.0178
      7 C         140.9067  142.7217  165.7423 C.2     1  UNL1        0.0765
      8 N         140.5861  142.8496  167.2020 N.2     1  UNL1       -0.2633
      9 C         141.2221  141.6959  167.9191 C.3     1  UNL1        0.1532
     10 C         140.4699  143.6616  164.6580 C.ar    1  UNL1        0.0172
     11 C         141.4823  144.5123  163.9499 C.ar    1  UNL1        0.0015
     12 C         141.0453  145.4522  162.8656 C.ar    1  UNL1        0.0000
     13 C         139.5960  145.5415  162.4894 C.ar    1  UNL1        0.0000
     14 C         138.5836  144.6908  163.1975 C.ar    1  UNL1        0.0000
     15 C         139.0206  143.7509  164.2818 C.ar    1  UNL1        0.0015
     16 N         139.9641  143.4758  169.9901 N.am    1  UNL1       -0.3255
     17 C         140.5298  142.1433  170.3830 C.2     1  UNL1        0.2409
     18 O         140.3818  141.6517  171.7925 O.2     1  UNL1       -0.2706
     19 H         139.4956  144.0277  170.6574 H       1  UNL1        0.1452
     20 H         140.0612  143.7984  169.0651 H       1  UNL1        0.1452
     21 N         143.3849  138.7794  166.3168 N.pl3   1  UNL1       -0.3330
     22 H         144.2992  138.4614  166.4956 H       1  UNL1        0.1468
     23 C         142.7054  138.4230  165.0279 C.3     1  UNL1        0.0849
     24 C         141.3685  137.7430  165.0479 C.3     1  UNL1        0.0223
     25 C         140.6891  137.3865  163.7591 C.3     1  UNL1        0.0188
     26 C         141.3465  137.7100  162.4502 C.3     1  UNL1        0.0687
     27 N         142.6834  138.3899  162.4302 N.3     1  UNL1       -0.2961
     28 C         143.3629  138.7464  163.7190 C.3     1  UNL1        0.0883
     29 H         142.5639  139.2592  161.9101 H       1  UNL1        0.1233
@<TRIPOS>BOND
     1    16    17   am
     2    17    18    2
     3    17     1    1
     4     1     2    2
     5     2     3    1
     6     3     4    2
     7     4    21    1
     8    23    21    1
     9    23    24    1
    10    24    25    1
    11    25    26    1
    12    26    27    1
    13    27    28    1
    14     4     5    1
    15     5     6    2
    16     6     7    1
    17     7    10    1
    18    10    11   ar
    19    11    12   ar
    20    12    13   ar
    21    13    14   ar
    22    14    15   ar
    23     7     8    2
    24     8     9    1
    25     9     1    1
    26    28    23    1
    27     9     5    1
    28    15    10   ar
    29    16    19    1
    30    16    20    1
    31    21    22    1
    32    27    29    1
@<TRIPOS>MOLECULE
*****
 29 32 0 0 0
SMALL
GASTEIGER

@<TRIPOS>ATOM
      1 C         138.9282  139.0885  164.2970 C.2     1  UNL1        0.0572
      2 C         138.1064  139.3621  163.0724 C.2     1  UNL1        0.0037
      3 C         137.7856  140.7751  162.6848 C.2     1  UNL1        0.0139
      4 C         138.2864  141.9147  163.5219 C.2     1  UNL1        0.0428
      5 C         139.1082  141.6410  164.7466 C.2     1  UNL1        0.0187
      6 C         139.7353  142.5531  165.7589 C.2     1  UNL1        0.0178
      7 C         140.4437  141.7037  166.7721 C.2     1  UNL1        0.0765
      8 N         140.2545  140.2667  166.3860 N.2     1  UNL1       -0.2633
      9 C         139.4291  140.2279  165.1341 C.3     1  UNL1        0.1532
     10 C         141.2074  142.2036  167.9625 C.ar    1  UNL1        0.0172
     11 C         142.6455  141.8190  168.1465 C.ar    1  UNL1        0.0015
     12 C         143.4091  142.3189  169.3369 C.ar    1  UNL1        0.0000
     13 C         142.7346  143.2034  170.3433 C.ar    1  UNL1        0.0000
     14 C         141.2965  143.5880  170.1593 C.ar    1  UNL1        0.0000
     15 C         140.5329  143.0880  168.9688 C.ar    1  UNL1        0.0015
     16 N         140.4492  136.9914  164.0999 N.am    1  UNL1       -0.3255
     17 C         139.2491  137.6754  164.6846 C.2     1  UNL1        0.2409
     18 O         138.3697  136.9462  165.6568 O.2     1  UNL1       -0.2706
     19 H         140.6598  136.0639  164.3543 H       1  UNL1        0.1452
     20 H         141.0263  137.4700  163.4618 H       1  UNL1        0.1452
     21 N         137.9655  143.3278  163.1343 N.pl3   1  UNL1       -0.3330
     22 H         137.1529  143.7612  163.4822 H       1  UNL1        0.1468
     23 C         138.8826  144.0804  162.2165 C.3     1  UNL1        0.0849
     24 C         139.3547  143.4457  160.9421 C.3     1  UNL1        0.0223
     25 C         140.2719  144.1983  160.0242 C.3     1  UNL1        0.0188
     26 C         140.7169  145.5856  160.3809 C.3     1  UNL1        0.0687
     27 N         140.2448  146.2204  161.6553 N.3     1  UNL1       -0.2961
     28 C         139.3277  145.4678  162.5732 C.3     1  UNL1        0.0883
     29 H         139.7606  147.0794  161.3946 H       1  UNL1        0.1233
@<TRIPOS>BOND
     1    16    17   am
     2    17    18    2
     3    17     1    1
     4     1     2    2
     5     2     3    1
     6     3     4    2
     7     4    21    1
     8    23    21    1
     9    23    24    1
    10    24    25    1
    11    25    26    1
    12    26    27    1
    13    27    28    1
    14     4     5    1
    15     5     6    2
    16     6     7    1
    17     7    10    1
    18    10    11   ar
    19    11    12   ar
    20    12    13   ar
    21    13    14   ar
    22    14    15   ar
    23     7     8    2
    24     8     9    1
    25     9     1    1
    26    28    23    1
    27     9     5    1
    28    15    10   ar
    29    16    19    1
    30    16    20    1
    31    21    22    1
    32    27    29    1
@<TRIPOS>MOLECULE
*****
 29 32 0 0 0
SMALL
GASTEIGER

@<TRIPOS>ATOM
      1 C         138.5881  139.5024  165.2726 C.2     1  UNL1        0.0572
      2 C         138.1199  139.6665  163.8571 C.2     1  UNL1        0.0037
      3 C         138.5548  140.8581  163.0567 C.2     1  UNL1        0.0139
      4 C         139.4580  141.8858  163.6718 C.2     1  UNL1        0.0428
      5 C         139.9261  141.7217  165.0874 C.2     1  UNL1        0.0187
      6 C         140.8135  142.5641  165.9551 C.2     1  UNL1        0.0178
      7 C         140.9270  141.8930  167.2917 C.2     1  UNL1        0.0765
      8 N         140.1097  140.6359  167.2502 N.2     1  UNL1       -0.2633
      9 C         139.4912  140.5300  165.8878 C.3     1  UNL1        0.1532
     10 C         141.7187  142.3916  168.4642 C.ar    1  UNL1        0.0172
     11 C         141.0702  143.2803  169.4838 C.ar    1  UNL1        0.0015
     12 C         141.8620  143.7788  170.6562 C.ar    1  UNL1        0.0000
     13 C         143.3022  143.3886  170.8091 C.ar    1  UNL1        0.0000
     14 C         143.9507  142.4998  169.7896 C.ar    1  UNL1        0.0000
     15 C         143.1589  142.0013  168.6171 C.ar    1  UNL1        0.0015
     16 N         137.5338  138.5013  167.4259 N.am    1  UNL1       -0.3255
     17 C         138.1531  138.3107  166.0730 C.2     1  UNL1        0.2409
     18 O         138.3375  136.9283  165.5206 O.2     1  UNL1       -0.2706
     19 H         137.2484  137.7191  167.9512 H       1  UNL1        0.1452
     20 H         137.4128  139.4086  167.7884 H       1  UNL1        0.1452
     21 N         139.8929  143.0775  162.8713 N.pl3   1  UNL1       -0.3330
     22 H         139.2196  143.6769  162.4754 H       1  UNL1        0.1468
     23 C         141.3535  143.3559  162.6739 C.3     1  UNL1        0.0849
     24 C         142.2981  142.2294  162.3764 C.3     1  UNL1        0.0223
     25 C         143.7588  142.5077  162.1790 C.3     1  UNL1        0.0188
     26 C         144.2748  143.9125  162.2792 C.3     1  UNL1        0.0687
     27 N         143.3302  145.0391  162.5767 N.3     1  UNL1       -0.2961
     28 C         141.8695  144.7608  162.7741 C.3     1  UNL1        0.0883
     29 H         143.4023  145.6967  161.8003 H       1  UNL1        0.1233
@<TRIPOS>BOND
     1    16    17   am
     2    17    18    2
     3    17     1    1
     4     1     2    2
     5     2     3    1
     6     3     4    2
     7     4    21    1
     8    23    21    1
     9    23    24    1
    10    24    25    1
    11    25    26    1
    12    26    27    1
    13    27    28    1
    14     4     5    1
    15     5     6    2
    16     6     7    1
    17     7    10    1
    18    10    11   ar
    19    11    12   ar
    20    12    13   ar
    21    13    14   ar
    22    14    15   ar
    23     7     8    2
    24     8     9    1
    25     9     1    1
    26    28    23    1
    27     9     5    1
    28    15    10   ar
    29    16    19    1
    30    16    20    1
    31    21    22    1
    32    27    29    1
@<TRIPOS>MOLECULE
*****
 29 32 0 0 0
SMALL
GASTEIGER

@<TRIPOS>ATOM
      1 C         139.9213  144.2910  161.5860 C.2     1  UNL1        0.0572
      2 C         139.8041  143.8539  160.1559 C.2     1  UNL1        0.0037
      3 C         139.6564  142.3981  159.8264 C.2     1  UNL1        0.0139
      4 C         139.6258  141.3792  160.9269 C.2     1  UNL1        0.0428
      5 C         139.7430  141.8163  162.3570 C.2     1  UNL1        0.0187
      6 C         139.7449  141.0470  163.6447 C.2     1  UNL1        0.0178
      7 C         139.8939  142.0274  164.7701 C.2     1  UNL1        0.0765
      8 N         139.9840  143.4027  164.1779 N.2     1  UNL1       -0.2633
      9 C         139.8908  143.2722  162.6865 C.3     1  UNL1        0.1532
     10 C         139.9439  141.6916  166.2311 C.ar    1  UNL1        0.0172
     11 C         139.4595  140.3554  166.7106 C.ar    1  UNL1        0.0015
     12 C         139.5096  140.0197  168.1717 C.ar    1  UNL1        0.0000
     13 C         140.0440  141.0201  169.1533 C.ar    1  UNL1        0.0000
     14 C         140.5284  142.3563  168.6739 C.ar    1  UNL1        0.0000
     15 C         140.4783  142.6920  167.2128 C.ar    1  UNL1        0.0015
     16 N         140.9786  146.1753  163.0288 N.am    1  UNL1       -0.3255
     17 C         140.0691  145.7468  161.9156 C.2     1  UNL1        0.2409
     18 O         139.3073  146.7743  161.1319 O.2     1  UNL1       -0.2706
     19 H         141.0755  147.1308  163.2451 H       1  UNL1        0.1452
     20 H         141.4785  145.5009  163.5432 H       1  UNL1        0.1452
     21 N         139.4780  139.9233  160.5972 N.pl3   1  UNL1       -0.3330
     22 H         138.5848  139.5448  160.4294 H       1  UNL1        0.1468
     23 C         140.6911  139.0442  160.5232 C.3     1  UNL1        0.0849
     24 C         141.5802  139.0931  159.3161 C.3     1  UNL1        0.0223
     25 C         142.7933  138.2140  159.2421 C.3     1  UNL1        0.0188
     26 C         143.1174  137.2861  160.3751 C.3     1  UNL1        0.0687
     27 N         142.2283  137.2372  161.5823 N.3     1  UNL1       -0.2961
     28 C         141.0152  138.1163  161.6563 C.3     1  UNL1        0.0883
     29 H         142.8106  137.4706  162.3865 H       1  UNL1        0.1233
@<TRIPOS>BOND
     1    16    17   am
     2    17    18    2
     3    17     1    1
     4     1     2    2
     5     2     3    1
     6     3     4    2
     7     4    21    1
     8    23    21    1
     9    23    24    1
    10    24    25    1
    11    25    26    1
    12    26    27    1
    13    27    28    1
    14     4     5    1
    15     5     6    2
    16     6     7    1
    17     7    10    1
    18    10    11   ar
    19    11    12   ar
    20    12    13   ar
    21    13    14   ar
    22    14    15   ar
    23     7     8    2
    24     8     9    1
    25     9     1    1
    26    28    23    1
    27     9     5    1
    28    15    10   ar
    29    16    19    1
    30    16    20    1
    31    21    22    1
    32    27    29    1
