@<TRIPOS>MOLECULE
*****
 30 33 0 0 0
SMALL
GASTEIGER

@<TRIPOS>ATOM
      1 C         138.5798  142.6695  164.6947 C.ar    1  UNL1        0.1582
      2 C         139.7724  143.0344  165.5282 C.ar    1  UNL1        0.0576
      3 C         140.3909  142.0157  166.4389 C.ar    1  UNL1        0.1365
      4 N         139.8170  140.6319  166.5163 N.ar    1  UNL1       -0.1988
      5 C         138.6244  140.2671  165.6829 C.ar    1  UNL1        0.2182
      6 N         138.0059  141.2858  164.7721 N.ar    1  UNL1       -0.2098
      7 F         137.3428  144.7070  162.8732 F       1  UNL1       -0.1644
      8 C         137.9613  143.6882  163.7840 C.3     1  UNL1        0.4350
      9 F         138.6283  144.7859  164.5588 F       1  UNL1       -0.1644
     10 F         137.2943  142.5906  163.0091 F       1  UNL1       -0.1644
     11 N         141.5835  142.3805  167.2724 N.pl3   1  UNL1       -0.2977
     12 H         142.3128  142.9139  166.8813 H       1  UNL1        0.1536
     13 C         141.6650  141.9328  168.7017 C.ar    1  UNL1        0.0525
     14 C         140.7134  142.4910  169.7180 C.ar    1  UNL1        0.0353
     15 C         140.7949  142.0432  171.1472 C.ar    1  UNL1        0.1002
     16 N         141.8279  141.0371  171.5603 N.ar    1  UNL1       -0.2422
     17 C         142.7795  140.4789  170.5440 C.ar    1  UNL1        0.1002
     18 C         142.6980  140.9266  169.1147 C.ar    1  UNL1        0.0353
     19 N         138.0503  138.8834  165.7602 N.pl3   1  UNL1       -0.2990
     20 H         137.1554  138.7426  166.1455 H       1  UNL1        0.1500
     21 C         138.8399  137.7143  165.2504 C.3     1  UNL1        0.1166
     22 C         139.5863  137.8215  163.9536 C.ar    1  UNL1        0.0007
     23 C         138.8331  137.9639  162.6644 C.ar    1  UNL1        0.0007
     24 C         139.5795  138.0710  161.3677 C.ar    1  UNL1        0.0399
     25 C         141.0790  138.0358  161.3603 C.ar    1  UNL1        0.1764
     26 C         141.8322  137.8934  162.6496 C.ar    1  UNL1        0.1762
     27 C         141.0859  137.7862  163.9463 C.ar    1  UNL1        0.0376
     28 O         143.2982  137.8888  162.3321 O.3     1  UNL1       -0.4346
     29 C         143.4510  138.0284  160.8464 C.3     1  UNL1        0.4294
     30 O         142.0795  138.1193  160.2458 O.3     1  UNL1       -0.4346
@<TRIPOS>BOND
     1     7     8    1
     2     8     9    1
     3     8    10    1
     4     8     1    1
     5     1     2   ar
     6     2     3   ar
     7     3    11    1
     8    11    13    1
     9    13    14   ar
    10    14    15   ar
    11    15    16   ar
    12    16    17   ar
    13    17    18   ar
    14     3     4   ar
    15     4     5   ar
    16     5    19    1
    17    19    21    1
    18    21    22    1
    19    22    23   ar
    20    23    24   ar
    21    24    25   ar
    22    25    26   ar
    23    26    27   ar
    24    26    28    1
    25    28    29    1
    26    29    30    1
    27     5     6   ar
    28     6     1   ar
    29    18    13   ar
    30    27    22   ar
    31    30    25    1
    32    11    12    1
    33    19    20    1
@<TRIPOS>MOLECULE
*****
 30 33 0 0 0
SMALL
GASTEIGER

@<TRIPOS>ATOM
      1 C         138.4949  139.3964  165.9590 C.ar    1  UNL1        0.1582
      2 C         139.5957  140.0131  166.7703 C.ar    1  UNL1        0.0576
      3 C         140.0119  141.4312  166.5141 C.ar    1  UNL1        0.1365
      4 N         139.3275  142.2327  165.4468 N.ar    1  UNL1       -0.1988
      5 C         138.2267  141.6160  164.6356 C.ar    1  UNL1        0.2182
      6 N         137.8105  140.1978  164.8917 N.ar    1  UNL1       -0.2098
      7 F         137.6625  136.5601  166.4713 F       1  UNL1       -0.1644
      8 C         138.0787  137.9783  166.2151 C.3     1  UNL1        0.4350
      9 F         139.0220  137.5086  165.1476 F       1  UNL1       -0.1644
     10 F         137.1354  138.4479  167.2826 F       1  UNL1       -0.1644
     11 N         141.1126  142.0480  167.3254 N.pl3   1  UNL1       -0.2977
     12 H         141.8918  142.4470  166.8749 H       1  UNL1        0.1536
     13 C         141.0261  142.0568  168.8228 C.ar    1  UNL1        0.0525
     14 C         140.0823  142.9956  169.5141 C.ar    1  UNL1        0.0353
     15 C         139.9958  143.0045  171.0115 C.ar    1  UNL1        0.1002
     16 N         140.8532  142.0745  171.8178 N.ar    1  UNL1       -0.2422
     17 C         141.7970  141.1357  171.1266 C.ar    1  UNL1        0.1002
     18 C         141.8835  141.1268  169.6291 C.ar    1  UNL1        0.0353
     19 N         137.5423  142.4174  163.5682 N.pl3   1  UNL1       -0.2990
     20 H         136.6100  142.7083  163.6927 H       1  UNL1        0.1500
     21 C         138.2781  142.7754  162.3111 C.3     1  UNL1        0.1166
     22 C         139.6597  143.3544  162.3898 C.ar    1  UNL1        0.0007
     23 C         139.8522  144.7810  162.8113 C.ar    1  UNL1        0.0007
     24 C         141.2336  145.3600  162.8900 C.ar    1  UNL1        0.0399
     25 C         142.4227  144.5123  162.5473 C.ar    1  UNL1        0.1764
     26 C         142.2303  143.0857  162.1258 C.ar    1  UNL1        0.1762
     27 C         140.8489  142.5067  162.0471 C.ar    1  UNL1        0.0376
     28 O         143.5824  142.4972  161.8506 O.3     1  UNL1       -0.4346
     29 C         144.6104  143.5602  162.1020 C.3     1  UNL1        0.4294
     30 O         143.8937  144.8056  162.5325 O.3     1  UNL1       -0.4346
@<TRIPOS>BOND
     1     7     8    1
     2     8     9    1
     3     8    10    1
     4     8     1    1
     5     1     2   ar
     6     2     3   ar
     7     3    11    1
     8    11    13    1
     9    13    14   ar
    10    14    15   ar
    11    15    16   ar
    12    16    17   ar
    13    17    18   ar
    14     3     4   ar
    15     4     5   ar
    16     5    19    1
    17    19    21    1
    18    21    22    1
    19    22    23   ar
    20    23    24   ar
    21    24    25   ar
    22    25    26   ar
    23    26    27   ar
    24    26    28    1
    25    28    29    1
    26    29    30    1
    27     5     6   ar
    28     6     1   ar
    29    18    13   ar
    30    27    22   ar
    31    30    25    1
    32    11    12    1
    33    19    20    1
@<TRIPOS>MOLECULE
*****
 30 33 0 0 0
SMALL
GASTEIGER

@<TRIPOS>ATOM
      1 C         138.7908  139.0545  165.5025 C.ar    1  UNL1        0.1582
      2 C         137.9792  140.0902  164.7823 C.ar    1  UNL1        0.0576
      3 C         138.6649  141.2162  164.0667 C.ar    1  UNL1        0.1365
      4 N         140.1622  141.3064  164.0713 N.ar    1  UNL1       -0.1988
      5 C         140.9738  140.2707  164.7914 C.ar    1  UNL1        0.2182
      6 N         140.2881  139.1448  165.5070 N.ar    1  UNL1       -0.2098
      7 F         137.4194  136.8027  166.9336 F       1  UNL1       -0.1644
      8 C         138.1051  137.9286  166.2181 C.3     1  UNL1        0.4350
      9 F         137.4196  138.9162  167.1151 F       1  UNL1       -0.1644
     10 F         138.7906  136.9410  165.3210 F       1  UNL1       -0.1644
     11 N         137.8533  142.2519  163.3465 N.pl3   1  UNL1       -0.2977
     12 H         136.8747  142.2712  163.4518 H       1  UNL1        0.1536
     13 C         138.5329  143.2582  162.4659 C.ar    1  UNL1        0.0525
     14 C         139.0149  142.8581  161.1031 C.ar    1  UNL1        0.0353
     15 C         139.6945  143.8645  160.2225 C.ar    1  UNL1        0.1002
     16 N         139.8920  145.2710  160.7048 N.ar    1  UNL1       -0.2422
     17 C         139.4100  145.6711  162.0676 C.ar    1  UNL1        0.1002
     18 C         138.7304  144.6648  162.9482 C.ar    1  UNL1        0.0353
     19 N         142.4710  140.3609  164.7960 N.pl3   1  UNL1       -0.2990
     20 H         142.9853  140.0509  164.0158 H       1  UNL1        0.1500
     21 C         143.1849  140.9234  165.9894 C.3     1  UNL1        0.1166
     22 C         142.4665  141.0553  167.2997 C.ar    1  UNL1        0.0007
     23 C         142.5385  139.9483  168.3092 C.ar    1  UNL1        0.0007
     24 C         141.8202  140.0802  169.6194 C.ar    1  UNL1        0.0399
     25 C         141.0299  141.3192  169.9200 C.ar    1  UNL1        0.1764
     26 C         140.9579  142.4263  168.9104 C.ar    1  UNL1        0.1762
     27 C         141.6762  142.2944  167.6002 C.ar    1  UNL1        0.0376
     28 O         140.1073  143.5211  169.4829 O.3     1  UNL1       -0.4346
     29 C         139.6536  143.0907  170.8463 C.3     1  UNL1        0.4294
     30 O         140.2238  141.7299  171.1165 O.3     1  UNL1       -0.4346
@<TRIPOS>BOND
     1     7     8    1
     2     8     9    1
     3     8    10    1
     4     8     1    1
     5     1     2   ar
     6     2     3   ar
     7     3    11    1
     8    11    13    1
     9    13    14   ar
    10    14    15   ar
    11    15    16   ar
    12    16    17   ar
    13    17    18   ar
    14     3     4   ar
    15     4     5   ar
    16     5    19    1
    17    19    21    1
    18    21    22    1
    19    22    23   ar
    20    23    24   ar
    21    24    25   ar
    22    25    26   ar
    23    26    27   ar
    24    26    28    1
    25    28    29    1
    26    29    30    1
    27     5     6   ar
    28     6     1   ar
    29    18    13   ar
    30    27    22   ar
    31    30    25    1
    32    11    12    1
    33    19    20    1
@<TRIPOS>MOLECULE
*****
 30 33 0 0 0
SMALL
GASTEIGER

@<TRIPOS>ATOM
      1 C         140.8122  139.9533  168.2460 C.ar    1  UNL1        0.1582
      2 C         139.4895  140.1809  167.5762 C.ar    1  UNL1        0.0576
      3 C         139.3046  139.8079  166.1351 C.ar    1  UNL1        0.1365
      4 N         140.4424  139.2075  165.3637 N.ar    1  UNL1       -0.1988
      5 C         141.7651  138.9800  166.0336 C.ar    1  UNL1        0.2182
      6 N         141.9500  139.3529  167.4747 N.ar    1  UNL1       -0.2098
      7 F         141.1820  140.6992  171.1281 F       1  UNL1       -0.1644
      8 C         140.9971  140.3262  169.6870 C.3     1  UNL1        0.4350
      9 F         142.2154  139.4540  169.7565 F       1  UNL1       -0.1644
     10 F         139.7788  141.1985  169.6176 F       1  UNL1       -0.1644
     11 N         137.9819  140.0354  165.4652 N.pl3   1  UNL1       -0.2977
     12 H         137.1645  139.6356  165.8412 H       1  UNL1        0.1536
     13 C         137.9045  140.8721  164.2227 C.ar    1  UNL1        0.0525
     14 C         137.9134  140.2150  162.8743 C.ar    1  UNL1        0.0353
     15 C         137.8360  141.0517  161.6317 C.ar    1  UNL1        0.1002
     16 N         137.7497  142.5454  161.7375 N.ar    1  UNL1       -0.2422
     17 C         137.7409  143.2025  163.0858 C.ar    1  UNL1        0.1002
     18 C         137.8182  142.3659  164.3284 C.ar    1  UNL1        0.0353
     19 N         142.9029  138.3796  165.2623 N.pl3   1  UNL1       -0.2990
     20 H         142.7934  137.5046  164.8246 H       1  UNL1        0.1500
     21 C         144.2076  139.1124  165.1580 C.3     1  UNL1        0.1166
     22 C         144.2898  140.3900  164.3762 C.ar    1  UNL1        0.0007
     23 C         144.8418  140.3817  162.9816 C.ar    1  UNL1        0.0007
     24 C         144.9240  141.6592  162.1999 C.ar    1  UNL1        0.0399
     25 C         144.4542  142.9451  162.8128 C.ar    1  UNL1        0.1764
     26 C         143.9022  142.9534  164.2076 C.ar    1  UNL1        0.1762
     27 C         143.8200  141.6759  164.9893 C.ar    1  UNL1        0.0376
     28 O         143.5187  144.3636  164.5460 O.3     1  UNL1       -0.4346
     29 C         143.8338  145.2267  163.3604 C.3     1  UNL1        0.4294
     30 O         144.4119  144.3501  162.2892 O.3     1  UNL1       -0.4346
@<TRIPOS>BOND
     1     7     8    1
     2     8     9    1
     3     8    10    1
     4     8     1    1
     5     1     2   ar
     6     2     3   ar
     7     3    11    1
     8    11    13    1
     9    13    14   ar
    10    14    15   ar
    11    15    16   ar
    12    16    17   ar
    13    17    18   ar
    14     3     4   ar
    15     4     5   ar
    16     5    19    1
    17    19    21    1
    18    21    22    1
    19    22    23   ar
    20    23    24   ar
    21    24    25   ar
    22    25    26   ar
    23    26    27   ar
    24    26    28    1
    25    28    29    1
    26    29    30    1
    27     5     6   ar
    28     6     1   ar
    29    18    13   ar
    30    27    22   ar
    31    30    25    1
    32    11    12    1
    33    19    20    1
@<TRIPOS>MOLECULE
*****
 30 33 0 0 0
SMALL
GASTEIGER

@<TRIPOS>ATOM
      1 C         138.6958  142.7062  164.5361 C.ar    1  UNL1        0.1582
      2 C         140.1265  142.9825  164.8921 C.ar    1  UNL1        0.0576
      3 C         140.9340  141.9439  165.6126 C.ar    1  UNL1        0.1365
      4 N         140.3109  140.6290  165.9772 N.ar    1  UNL1       -0.1988
      5 C         138.8801  140.3528  165.6212 C.ar    1  UNL1        0.2182
      6 N         138.0726  141.3914  164.9007 N.ar    1  UNL1       -0.2098
      7 F         137.0808  144.7835  163.0950 F       1  UNL1       -0.1644
      8 C         137.8883  143.7448  163.8155 C.3     1  UNL1        0.4350
      9 F         137.4158  142.7038  162.8445 F       1  UNL1       -0.1644
     10 F         138.3608  144.7859  164.7866 F       1  UNL1       -0.1644
     11 N         142.3648  142.2200  165.9686 N.pl3   1  UNL1       -0.2977
     12 H         142.5934  142.5505  166.8674 H       1  UNL1        0.1536
     13 C         143.4471  141.9926  164.9553 C.ar    1  UNL1        0.0525
     14 C         144.1283  140.6589  164.8720 C.ar    1  UNL1        0.0353
     15 C         145.2107  140.4315  163.8587 C.ar    1  UNL1        0.1002
     16 N         145.6119  141.5379  162.9287 N.ar    1  UNL1       -0.2422
     17 C         144.9307  142.8716  163.0120 C.ar    1  UNL1        0.1002
     18 C         143.8483  143.0990  164.0253 C.ar    1  UNL1        0.0353
     19 N         138.2569  139.0380  165.9857 N.pl3   1  UNL1       -0.2990
     20 H         137.5415  139.0029  166.6612 H       1  UNL1        0.1500
     21 C         138.7237  137.7769  165.3212 C.3     1  UNL1        0.1166
     22 C         139.4751  137.8460  164.0248 C.ar    1  UNL1        0.0007
     23 C         138.7273  137.9604  162.7297 C.ar    1  UNL1        0.0007
     24 C         139.4787  138.0296  161.4333 C.ar    1  UNL1        0.0399
     25 C         140.9780  137.9843  161.4321 C.ar    1  UNL1        0.1764
     26 C         141.7259  137.8699  162.7273 C.ar    1  UNL1        0.1762
     27 C         140.9745  137.8008  164.0237 C.ar    1  UNL1        0.0376
     28 O         143.1929  137.8477  162.4151 O.3     1  UNL1       -0.4346
     29 C         143.3516  137.9484  160.9269 C.3     1  UNL1        0.4294
     30 O         141.9827  138.0328  160.3194 O.3     1  UNL1       -0.4346
@<TRIPOS>BOND
     1     7     8    1
     2     8     9    1
     3     8    10    1
     4     8     1    1
     5     1     2   ar
     6     2     3   ar
     7     3    11    1
     8    11    13    1
     9    13    14   ar
    10    14    15   ar
    11    15    16   ar
    12    16    17   ar
    13    17    18   ar
    14     3     4   ar
    15     4     5   ar
    16     5    19    1
    17    19    21    1
    18    21    22    1
    19    22    23   ar
    20    23    24   ar
    21    24    25   ar
    22    25    26   ar
    23    26    27   ar
    24    26    28    1
    25    28    29    1
    26    29    30    1
    27     5     6   ar
    28     6     1   ar
    29    18    13   ar
    30    27    22   ar
    31    30    25    1
    32    11    12    1
    33    19    20    1
@<TRIPOS>MOLECULE
*****
 30 33 0 0 0
SMALL
GASTEIGER

@<TRIPOS>ATOM
      1 C         138.5881  139.5951  165.9792 C.ar    1  UNL1        0.1582
      2 C         138.0831  140.3312  164.7736 C.ar    1  UNL1        0.0576
      3 C         138.5482  141.7308  164.5003 C.ar    1  UNL1        0.1365
      4 N         139.5183  142.3944  165.4324 N.ar    1  UNL1       -0.1988
      5 C         140.0231  141.6582  166.6379 C.ar    1  UNL1        0.2182
      6 N         139.5580  140.2586  166.9113 N.ar    1  UNL1       -0.2098
      7 F         137.6578  136.7959  166.5259 F       1  UNL1       -0.1644
      8 C         138.1230  138.1955  166.2525 C.3     1  UNL1        0.4350
      9 F         139.0464  137.6808  165.1884 F       1  UNL1       -0.1644
     10 F         137.1995  138.7102  167.3167 F       1  UNL1       -0.1644
     11 N         138.0434  142.4669  163.2948 N.pl3   1  UNL1       -0.2977
     12 H         137.1214  142.3235  162.9808 H       1  UNL1        0.1536
     13 C         138.9433  143.4215  162.5676 C.ar    1  UNL1        0.0525
     14 C         140.0071  142.8975  161.6490 C.ar    1  UNL1        0.0353
     15 C         140.9070  143.8522  160.9218 C.ar    1  UNL1        0.1002
     16 N         140.7432  145.3309  161.1132 N.ar    1  UNL1       -0.2422
     17 C         139.6794  145.8548  162.0317 C.ar    1  UNL1        0.1002
     18 C         138.7795  144.9002  162.7589 C.ar    1  UNL1        0.0353
     19 N         140.9931  142.3217  167.5700 N.pl3   1  UNL1       -0.2990
     20 H         140.6749  142.9947  168.2143 H       1  UNL1        0.1500
     21 C         142.4480  141.9599  167.5206 C.3     1  UNL1        0.1166
     22 C         143.0905  141.6132  166.2102 C.ar    1  UNL1        0.0007
     23 C         143.3723  140.1800  165.8690 C.ar    1  UNL1        0.0007
     24 C         144.0148  139.8333  164.5587 C.ar    1  UNL1        0.0399
     25 C         144.3755  140.9199  163.5895 C.ar    1  UNL1        0.1764
     26 C         144.0937  142.3531  163.9307 C.ar    1  UNL1        0.1762
     27 C         143.4512  142.6998  165.2410 C.ar    1  UNL1        0.0376
     28 O         144.5574  143.2023  162.7845 O.3     1  UNL1       -0.4346
     29 C         145.1258  142.2939  161.7349 C.3     1  UNL1        0.4294
     30 O         145.0134  140.8833  162.2324 O.3     1  UNL1       -0.4346
@<TRIPOS>BOND
     1     7     8    1
     2     8     9    1
     3     8    10    1
     4     8     1    1
     5     1     2   ar
     6     2     3   ar
     7     3    11    1
     8    11    13    1
     9    13    14   ar
    10    14    15   ar
    11    15    16   ar
    12    16    17   ar
    13    17    18   ar
    14     3     4   ar
    15     4     5   ar
    16     5    19    1
    17    19    21    1
    18    21    22    1
    19    22    23   ar
    20    23    24   ar
    21    24    25   ar
    22    25    26   ar
    23    26    27   ar
    24    26    28    1
    25    28    29    1
    26    29    30    1
    27     5     6   ar
    28     6     1   ar
    29    18    13   ar
    30    27    22   ar
    31    30    25    1
    32    11    12    1
    33    19    20    1
@<TRIPOS>MOLECULE
*****
 30 33 0 0 0
SMALL
GASTEIGER

@<TRIPOS>ATOM
      1 C         142.5581  143.6890  164.2620 C.ar    1  UNL1        0.1582
      2 C         142.7899  142.6119  165.2799 C.ar    1  UNL1        0.0576
      3 C         141.6896  142.2200  166.2210 C.ar    1  UNL1        0.1365
      4 N         140.3574  142.9051  166.1443 N.ar    1  UNL1       -0.1988
      5 C         140.1256  143.9822  165.1264 C.ar    1  UNL1        0.2182
      6 N         141.2259  144.3741  164.1853 N.ar    1  UNL1       -0.2098
      7 F         144.7587  144.4728  162.3799 F       1  UNL1       -0.1644
      8 C         143.6584  144.0809  163.3210 C.3     1  UNL1        0.4350
      9 F         143.9555  145.2822  164.1686 F       1  UNL1       -0.1644
     10 F         143.3613  142.8796  162.4733 F       1  UNL1       -0.1644
     11 N         141.9214  141.1429  167.2389 N.pl3   1  UNL1       -0.2977
     12 H         142.1193  140.2238  166.9467 H       1  UNL1        0.1536
     13 C         141.8517  141.4661  168.7020 C.ar    1  UNL1        0.0525
     14 C         140.9149  140.7068  169.5941 C.ar    1  UNL1        0.0353
     15 C         140.8451  141.0300  171.0572 C.ar    1  UNL1        0.1002
     16 N         141.7123  142.1125  171.6283 N.ar    1  UNL1       -0.2422
     17 C         142.6491  142.8718  170.7362 C.ar    1  UNL1        0.1002
     18 C         142.7188  142.5486  169.2731 C.ar    1  UNL1        0.0353
     19 N         138.7935  144.6674  165.0496 N.pl3   1  UNL1       -0.2990
     20 H         138.6961  145.5921  165.3733 H       1  UNL1        0.1500
     21 C         137.6096  143.9439  164.4795 C.3     1  UNL1        0.1166
     22 C         137.8132  142.8397  163.4846 C.ar    1  UNL1        0.0007
     23 C         137.9854  143.1631  162.0301 C.ar    1  UNL1        0.0007
     24 C         138.1890  142.0590  161.0354 C.ar    1  UNL1        0.0399
     25 C         138.2204  140.6316  161.4952 C.ar    1  UNL1        0.1764
     26 C         138.0482  140.3082  162.9497 C.ar    1  UNL1        0.1762
     27 C         137.8447  141.4122  163.9445 C.ar    1  UNL1        0.0376
     28 O         138.1241  138.8182  163.1055 O.3     1  UNL1       -0.4346
     29 C         138.3431  138.2208  161.7472 C.3     1  UNL1        0.4294
     30 O         138.4026  139.3415  160.7519 O.3     1  UNL1       -0.4346
@<TRIPOS>BOND
     1     7     8    1
     2     8     9    1
     3     8    10    1
     4     8     1    1
     5     1     2   ar
     6     2     3   ar
     7     3    11    1
     8    11    13    1
     9    13    14   ar
    10    14    15   ar
    11    15    16   ar
    12    16    17   ar
    13    17    18   ar
    14     3     4   ar
    15     4     5   ar
    16     5    19    1
    17    19    21    1
    18    21    22    1
    19    22    23   ar
    20    23    24   ar
    21    24    25   ar
    22    25    26   ar
    23    26    27   ar
    24    26    28    1
    25    28    29    1
    26    29    30    1
    27     5     6   ar
    28     6     1   ar
    29    18    13   ar
    30    27    22   ar
    31    30    25    1
    32    11    12    1
    33    19    20    1
@<TRIPOS>MOLECULE
*****
 30 33 0 0 0
SMALL
GASTEIGER

@<TRIPOS>ATOM
      1 C         139.2663  139.5245  166.0117 C.ar    1  UNL1        0.1582
      2 C         140.1043  138.5392  165.2521 C.ar    1  UNL1        0.0576
      3 C         139.9386  138.4008  163.7678 C.ar    1  UNL1        0.1365
      4 N         138.9348  139.2477  163.0429 N.ar    1  UNL1       -0.1988
      5 C         138.0968  140.2329  163.8025 C.ar    1  UNL1        0.2182
      6 N         138.2626  140.3713  165.2869 N.ar    1  UNL1       -0.2098
      7 F         139.5979  139.8013  168.9804 F       1  UNL1       -0.1644
      8 C         139.4321  139.6629  167.4961 C.3     1  UNL1        0.4350
      9 F         140.7716  140.3046  167.2866 F       1  UNL1       -0.1644
     10 F         138.0926  139.0211  167.7055 F       1  UNL1       -0.1644
     11 N         140.7765  137.4155  163.0081 N.pl3   1  UNL1       -0.2977
     12 H         140.7052  136.4536  163.2052 H       1  UNL1        0.1536
     13 C         141.7230  137.8958  161.9482 C.ar    1  UNL1        0.0525
     14 C         141.2136  138.2044  160.5716 C.ar    1  UNL1        0.0353
     15 C         142.1601  138.6847  159.5117 C.ar    1  UNL1        0.1002
     16 N         143.6162  138.8565  159.8285 N.ar    1  UNL1       -0.2422
     17 C         144.1257  138.5479  161.2051 C.ar    1  UNL1        0.1002
     18 C         143.1791  138.0676  162.2650 C.ar    1  UNL1        0.0353
     19 N         137.0931  141.0798  163.0778 N.pl3   1  UNL1       -0.2990
     20 H         136.1386  140.8396  163.1003 H       1  UNL1        0.1500
     21 C         137.5436  142.2927  162.3189 C.3     1  UNL1        0.1166
     22 C         138.7078  143.0982  162.8148 C.ar    1  UNL1        0.0007
     23 C         138.5372  144.0210  163.9849 C.ar    1  UNL1        0.0007
     24 C         139.7014  144.8265  164.4808 C.ar    1  UNL1        0.0399
     25 C         141.0362  144.7090  163.8066 C.ar    1  UNL1        0.1764
     26 C         141.2068  143.7862  162.6365 C.ar    1  UNL1        0.1762
     27 C         140.0427  142.9807  162.1406 C.ar    1  UNL1        0.0376
     28 O         142.6317  143.8787  162.1770 O.3     1  UNL1       -0.4346
     29 C         143.3417  144.8588  163.0632 C.3     1  UNL1        0.4294
     30 O         142.3556  145.3720  164.0703 O.3     1  UNL1       -0.4346
@<TRIPOS>BOND
     1     7     8    1
     2     8     9    1
     3     8    10    1
     4     8     1    1
     5     1     2   ar
     6     2     3   ar
     7     3    11    1
     8    11    13    1
     9    13    14   ar
    10    14    15   ar
    11    15    16   ar
    12    16    17   ar
    13    17    18   ar
    14     3     4   ar
    15     4     5   ar
    16     5    19    1
    17    19    21    1
    18    21    22    1
    19    22    23   ar
    20    23    24   ar
    21    24    25   ar
    22    25    26   ar
    23    26    27   ar
    24    26    28    1
    25    28    29    1
    26    29    30    1
    27     5     6   ar
    28     6     1   ar
    29    18    13   ar
    30    27    22   ar
    31    30    25    1
    32    11    12    1
    33    19    20    1
@<TRIPOS>MOLECULE
*****
 30 33 0 0 0
SMALL
GASTEIGER

@<TRIPOS>ATOM
      1 C         138.9245  138.6171  164.5503 C.ar    1  UNL1        0.1582
      2 C         138.3379  139.6501  163.6345 C.ar    1  UNL1        0.0576
      3 C         138.9771  139.9237  162.3054 C.ar    1  UNL1        0.1365
      4 N         140.2029  139.1644  161.8921 N.ar    1  UNL1       -0.1988
      5 C         140.7895  138.1314  162.8080 C.ar    1  UNL1        0.2182
      6 N         140.1503  137.8578  164.1371 N.ar    1  UNL1       -0.2098
      7 F         137.6461  138.0699  167.2085 F       1  UNL1       -0.1644
      8 C         138.2853  138.3435  165.8794 C.3     1  UNL1        0.4350
      9 F         138.5082  136.8731  165.6839 F       1  UNL1       -0.1644
     10 F         138.0625  139.8139  166.0750 F       1  UNL1       -0.1644
     11 N         138.3905  140.9567  161.3894 N.pl3   1  UNL1       -0.2977
     12 H         137.8678  140.6776  160.6032 H       1  UNL1        0.1536
     13 C         138.6003  142.4149  161.6714 C.ar    1  UNL1        0.0525
     14 C         139.6700  143.1734  160.9432 C.ar    1  UNL1        0.0353
     15 C         139.8798  144.6316  161.2251 C.ar    1  UNL1        0.1002
     16 N         139.0198  145.3315  162.2353 N.ar    1  UNL1       -0.2422
     17 C         137.9500  144.5731  162.9636 C.ar    1  UNL1        0.1002
     18 C         137.7402  143.1148  162.6816 C.ar    1  UNL1        0.0353
     19 N         142.0153  137.3721  162.3948 N.pl3   1  UNL1       -0.2990
     20 H         141.9849  136.3908  162.3207 H       1  UNL1        0.1500
     21 C         143.2876  138.1077  162.0945 C.3     1  UNL1        0.1166
     22 C         143.5271  139.4648  162.6872 C.ar    1  UNL1        0.0007
     23 C         143.9188  139.5948  164.1292 C.ar    1  UNL1        0.0007
     24 C         144.1583  140.9518  164.7219 C.ar    1  UNL1        0.0399
     25 C         144.0061  142.1787  163.8725 C.ar    1  UNL1        0.1764
     26 C         143.6145  142.0486  162.4304 C.ar    1  UNL1        0.1762
     27 C         143.3750  140.6917  161.8377 C.ar    1  UNL1        0.0376
     28 O         143.5414  143.4272  161.8438 O.3     1  UNL1       -0.4346
     29 C         143.8879  144.4093  162.9233 C.3     1  UNL1        0.4294
     30 O         144.1752  143.6376  164.1772 O.3     1  UNL1       -0.4346
@<TRIPOS>BOND
     1     7     8    1
     2     8     9    1
     3     8    10    1
     4     8     1    1
     5     1     2   ar
     6     2     3   ar
     7     3    11    1
     8    11    13    1
     9    13    14   ar
    10    14    15   ar
    11    15    16   ar
    12    16    17   ar
    13    17    18   ar
    14     3     4   ar
    15     4     5   ar
    16     5    19    1
    17    19    21    1
    18    21    22    1
    19    22    23   ar
    20    23    24   ar
    21    24    25   ar
    22    25    26   ar
    23    26    27   ar
    24    26    28    1
    25    28    29    1
    26    29    30    1
    27     5     6   ar
    28     6     1   ar
    29    18    13   ar
    30    27    22   ar
    31    30    25    1
    32    11    12    1
    33    19    20    1
