@<TRIPOS>MOLECULE
*****
 36 41 0 0 0
SMALL
GASTEIGER

@<TRIPOS>ATOM
      1 N         143.2602  142.8614  164.5870 N.3     1  UNL1       -0.2703
      2 C         143.8562  142.4577  163.2710 C.3     1  UNL1        0.0736
      3 C         143.4894  143.2022  162.0216 C.3     1  UNL1        0.0331
      4 C         142.5265  144.3505  162.0882 C.3     1  UNL1        0.0570
      5 C         141.9305  144.7543  163.4042 C.3     1  UNL1        0.0331
      6 C         142.2973  144.0097  164.6536 C.3     1  UNL1        0.0736
      7 N         142.1597  145.0951  160.8387 N.3     1  UNL1       -0.2934
      8 H         142.9085  144.9289  160.1663 H       1  UNL1        0.1236
      9 C         140.8705  144.7904  160.1352 C.3     1  UNL1        0.1152
     10 C         140.0172  143.6459  160.5956 C.ar    1  UNL1        0.0782
     11 C         140.3513  142.2451  160.1758 C.ar    1  UNL1        0.0562
     12 C         139.4980  141.1006  160.6362 C.ar    1  UNL1        0.1752
     13 C         138.3108  141.3568  161.5163 C.ar    1  UNL1        0.1914
     14 C         137.9767  142.7575  161.9360 C.ar    1  UNL1        0.1384
     15 N         138.8299  143.9021  161.4757 N.ar    1  UNL1       -0.2434
     16 O         137.4574  140.2121  161.9767 O.3     1  UNL1       -0.4668
     17 C         137.7916  138.8114  161.5569 C.3     1  UNL1        0.2527
     18 C         138.9789  138.5552  160.6768 C.3     1  UNL1        0.2526
     19 O         139.8321  139.6997  160.2164 O.3     1  UNL1       -0.4683
     20 C         143.6270  142.1168  165.8364 C.3     1  UNL1        0.1056
     21 O         139.8248  138.7307  164.4232 O.2     1  UNL1       -0.2653
     22 C         139.7457  139.2817  165.8161 C.ar    1  UNL1        0.2803
     23 C         138.6277  138.8648  166.7251 C.ar    1  UNL1        0.1594
     24 N         138.5486  139.4158  168.1180 N.ar    1  UNL1       -0.2374
     25 C         139.5874  140.3836  168.6019 C.ar    1  UNL1        0.0972
     26 C         139.5083  140.9346  169.9948 C.ar    1  UNL1        0.0229
     27 C         140.5471  141.9024  170.4786 C.ar    1  UNL1        0.0310
     28 C         141.6651  142.3193  169.5696 C.ar    1  UNL1        0.1399
     29 F         142.7039  143.2871  170.0534 F       1  UNL1       -0.2044
     30 C         141.7442  141.7684  168.1767 C.ar    1  UNL1        0.0497
     31 C         140.7053  140.8005  167.6928 C.ar    1  UNL1        0.0806
     32 N         140.7845  140.2495  166.2999 N.ar    1  UNL1       -0.2902
     33 C         142.0190  140.9170  165.7702 C.3     1  UNL1        0.1415
     34 C         142.5731  141.7939  166.8538 C.3     1  UNL1        0.1458
     35 O         143.3475  142.7383  167.7246 O.3     1  UNL1       -0.3793
     36 H         144.1109  143.0793  167.2328 H       1  UNL1        0.2108
@<TRIPOS>BOND
     1    21    22    2
     2    22    23   ar
     3    23    24   ar
     4    24    25   ar
     5    25    26   ar
     6    26    27   ar
     7    27    28   ar
     8    28    29    1
     9    28    30   ar
    10    30    31   ar
    11    31    32   ar
    12    32    33    1
    13    33    34    1
    14    34    35    1
    15    34    20    1
    16    20     1    1
    17     1     2    1
    18     2     3    1
    19     3     4    1
    20     4     7    1
    21     7     9    1
    22     9    10    1
    23    10    11   ar
    24    11    12   ar
    25    12    13   ar
    26    13    14   ar
    27    14    15   ar
    28    13    16    1
    29    16    17    1
    30    17    18    1
    31    18    19    1
    32     4     5    1
    33     5     6    1
    34    32    22   ar
    35     6     1    1
    36    31    25   ar
    37    15    10   ar
    38    34    30    1
    39    19    12    1
    40    35    36    1
    41     7     8    1
@<TRIPOS>MOLECULE
*****
 36 41 0 0 0
SMALL
GASTEIGER

@<TRIPOS>ATOM
      1 N         138.5650  139.3178  164.6394 N.3     1  UNL1       -0.2703
      2 C         138.9109  138.5714  163.3851 C.3     1  UNL1        0.0736
      3 C         138.5706  139.1561  162.0464 C.3     1  UNL1        0.0331
      4 C         137.8843  140.4872  161.9619 C.3     1  UNL1        0.0570
      5 C         137.5384  141.2337  163.2161 C.3     1  UNL1        0.0331
      6 C         137.8787  140.6490  164.5549 C.3     1  UNL1        0.0736
      7 N         137.5440  141.0720  160.6230 N.3     1  UNL1       -0.2934
      8 H         136.6665  141.5792  160.7377 H       1  UNL1        0.1236
      9 C         138.5013  142.0096  159.9489 C.3     1  UNL1        0.1152
     10 C         139.4316  142.8510  160.7715 C.ar    1  UNL1        0.0782
     11 C         140.8898  142.5068  160.8419 C.ar    1  UNL1        0.0562
     12 C         141.8201  143.3481  161.6645 C.ar    1  UNL1        0.1752
     13 C         141.2922  144.5336  162.4166 C.ar    1  UNL1        0.1914
     14 C         139.8340  144.8779  162.3461 C.ar    1  UNL1        0.1384
     15 N         138.9037  144.0366  161.5236 N.ar    1  UNL1       -0.2434
     16 O         142.2226  145.3751  163.2392 O.3     1  UNL1       -0.4668
     17 C         143.6809  145.0308  163.3096 C.3     1  UNL1        0.2527
     18 C         144.2088  143.8452  162.5575 C.3     1  UNL1        0.2526
     19 O         143.2785  143.0038  161.7350 O.3     1  UNL1       -0.4683
     20 C         138.9053  138.7331  165.9781 C.3     1  UNL1        0.1056
     21 O         143.3980  141.2810  164.8632 O.2     1  UNL1       -0.2653
     22 C         142.8275  141.4997  166.2331 C.ar    1  UNL1        0.2803
     23 C         143.5301  142.4032  167.2026 C.ar    1  UNL1        0.1594
     24 N         142.9595  142.6219  168.5726 N.ar    1  UNL1       -0.2374
     25 C         141.6865  141.9372  168.9729 C.ar    1  UNL1        0.0972
     26 C         141.1159  142.1559  170.3428 C.ar    1  UNL1        0.0229
     27 C         139.8429  141.4712  170.7432 C.ar    1  UNL1        0.0310
     28 C         139.1402  140.5677  169.7736 C.ar    1  UNL1        0.1399
     29 F         137.8671  139.8830  170.1740 F       1  UNL1       -0.2044
     30 C         139.7107  140.3490  168.4037 C.ar    1  UNL1        0.0497
     31 C         140.9839  141.0338  168.0034 C.ar    1  UNL1        0.0806
     32 N         141.5544  140.8150  166.6334 N.ar    1  UNL1       -0.2902
     33 C         140.5572  139.8726  166.0271 C.3     1  UNL1        0.1415
     34 C         139.4928  139.6035  167.0492 C.3     1  UNL1        0.1458
     35 O         138.3055  139.1525  167.8474 O.3     1  UNL1       -0.3793
     36 H         137.7655  138.5506  167.3116 H       1  UNL1        0.2108
@<TRIPOS>BOND
     1    21    22    2
     2    22    23   ar
     3    23    24   ar
     4    24    25   ar
     5    25    26   ar
     6    26    27   ar
     7    27    28   ar
     8    28    29    1
     9    28    30   ar
    10    30    31   ar
    11    31    32   ar
    12    32    33    1
    13    33    34    1
    14    34    35    1
    15    34    20    1
    16    20     1    1
    17     1     2    1
    18     2     3    1
    19     3     4    1
    20     4     7    1
    21     7     9    1
    22     9    10    1
    23    10    11   ar
    24    11    12   ar
    25    12    13   ar
    26    13    14   ar
    27    14    15   ar
    28    13    16    1
    29    16    17    1
    30    17    18    1
    31    18    19    1
    32     4     5    1
    33     5     6    1
    34    32    22   ar
    35     6     1    1
    36    31    25   ar
    37    15    10   ar
    38    34    30    1
    39    19    12    1
    40    35    36    1
    41     7     8    1
@<TRIPOS>MOLECULE
*****
 36 41 0 0 0
SMALL
GASTEIGER

@<TRIPOS>ATOM
      1 N         143.5674  141.5601  164.6671 N.3     1  UNL1       -0.2703
      2 C         143.9890  140.1640  165.0179 C.3     1  UNL1        0.0736
      3 C         144.3501  139.1943  163.9320 C.3     1  UNL1        0.0331
      4 C         144.2896  139.6208  162.4951 C.3     1  UNL1        0.0570
      5 C         143.8680  141.0169  162.1442 C.3     1  UNL1        0.0331
      6 C         143.5069  141.9866  163.2302 C.3     1  UNL1        0.0736
      7 N         144.6507  138.6511  161.4091 N.3     1  UNL1       -0.2934
      8 H         145.4301  138.0938  161.7591 H       1  UNL1        0.1236
      9 C         143.6248  137.6855  160.8942 C.3     1  UNL1        0.1152
     10 C         142.1649  137.9622  161.0994 C.ar    1  UNL1        0.0782
     11 C         141.4116  138.7922  160.1027 C.ar    1  UNL1        0.0562
     12 C         139.9517  139.0688  160.3079 C.ar    1  UNL1        0.1752
     13 C         139.2451  138.5155  161.5097 C.ar    1  UNL1        0.1914
     14 C         139.9985  137.6855  162.5065 C.ar    1  UNL1        0.1384
     15 N         141.4584  137.4088  162.3013 N.ar    1  UNL1       -0.2434
     16 O         137.7851  138.7922  161.7149 O.3     1  UNL1       -0.4668
     17 C         137.0318  139.6222  160.7182 C.3     1  UNL1        0.2527
     18 C         137.7383  140.1756  159.5163 C.3     1  UNL1        0.2526
     19 O         139.1982  139.8989  159.3111 O.3     1  UNL1       -0.4683
     20 C         143.2063  142.5297  165.7530 C.3     1  UNL1        0.1056
     21 O         138.7280  139.7843  165.1813 O.2     1  UNL1       -0.2653
     22 C         139.2034  140.0029  166.5870 C.ar    1  UNL1        0.2803
     23 C         138.4163  139.4525  167.7392 C.ar    1  UNL1        0.1594
     24 N         138.8918  139.6712  169.1449 N.ar    1  UNL1       -0.2374
     25 C         140.1544  140.4402  169.3985 C.ar    1  UNL1        0.0972
     26 C         140.6298  140.6588  170.8043 C.ar    1  UNL1        0.0229
     27 C         141.8924  141.4279  171.0579 C.ar    1  UNL1        0.0310
     28 C         142.6797  141.9783  169.9058 C.ar    1  UNL1        0.1399
     29 F         143.9423  142.7473  170.1594 F       1  UNL1       -0.2044
     30 C         142.2042  141.7597  168.5000 C.ar    1  UNL1        0.0497
     31 C         140.9415  140.9906  168.2464 C.ar    1  UNL1        0.0806
     32 N         140.4660  140.7720  166.8407 N.ar    1  UNL1       -0.2902
     33 C         141.5248  141.4717  166.0409 C.3     1  UNL1        0.1415
     34 C         142.5283  142.0419  166.9990 C.3     1  UNL1        0.1458
     35 O         143.6736  142.7142  167.6966 O.3     1  UNL1       -0.3793
     36 H         144.2626  143.1150  167.0384 H       1  UNL1        0.2108
@<TRIPOS>BOND
     1    21    22    2
     2    22    23   ar
     3    23    24   ar
     4    24    25   ar
     5    25    26   ar
     6    26    27   ar
     7    27    28   ar
     8    28    29    1
     9    28    30   ar
    10    30    31   ar
    11    31    32   ar
    12    32    33    1
    13    33    34    1
    14    34    35    1
    15    34    20    1
    16    20     1    1
    17     1     2    1
    18     2     3    1
    19     3     4    1
    20     4     7    1
    21     7     9    1
    22     9    10    1
    23    10    11   ar
    24    11    12   ar
    25    12    13   ar
    26    13    14   ar
    27    14    15   ar
    28    13    16    1
    29    16    17    1
    30    17    18    1
    31    18    19    1
    32     4     5    1
    33     5     6    1
    34    32    22   ar
    35     6     1    1
    36    31    25   ar
    37    15    10   ar
    38    34    30    1
    39    19    12    1
    40    35    36    1
    41     7     8    1
@<TRIPOS>MOLECULE
*****
 36 41 0 0 0
SMALL
GASTEIGER

@<TRIPOS>ATOM
      1 N         138.4613  141.9767  164.5240 N.3     1  UNL1       -0.2703
      2 C         137.9229  141.9946  163.1241 C.3     1  UNL1        0.0736
      3 C         137.8863  143.2796  162.3511 C.3     1  UNL1        0.0331
      4 C         138.3880  144.5466  162.9780 C.3     1  UNL1        0.0570
      5 C         138.9265  144.5286  164.3780 C.3     1  UNL1        0.0331
      6 C         138.9631  143.2436  165.1509 C.3     1  UNL1        0.0736
      7 N         138.3514  145.8316  162.2050 N.3     1  UNL1       -0.2934
      8 H         138.0855  146.5638  162.8634 H       1  UNL1        0.1236
      9 C         139.5807  146.3143  161.4938 C.3     1  UNL1        0.1152
     10 C         140.7015  145.3611  161.2023 C.ar    1  UNL1        0.0782
     11 C         141.6536  144.9671  162.2922 C.ar    1  UNL1        0.0562
     12 C         142.7744  144.0138  162.0007 C.ar    1  UNL1        0.1752
     13 C         142.9431  143.4545  160.6192 C.ar    1  UNL1        0.1914
     14 C         141.9910  143.8484  159.5292 C.ar    1  UNL1        0.1384
     15 N         140.8701  144.8017  159.8207 N.ar    1  UNL1       -0.2434
     16 O         144.0640  142.5011  160.3276 O.3     1  UNL1       -0.4668
     17 C         145.0161  142.1072  161.4177 C.3     1  UNL1        0.2527
     18 C         144.8475  142.6666  162.7993 C.3     1  UNL1        0.2526
     19 O         143.7267  143.6198  163.0908 O.3     1  UNL1       -0.4683
     20 C         138.4980  140.6917  165.2970 C.3     1  UNL1        0.1056
     21 O         139.5144  140.6410  170.4819 O.2     1  UNL1       -0.2653
     22 C         140.5777  140.0774  169.5865 C.ar    1  UNL1        0.2803
     23 C         141.8471  139.5386  170.1767 C.ar    1  UNL1        0.1594
     24 N         142.9104  138.9750  169.2813 N.ar    1  UNL1       -0.2374
     25 C         142.7043  138.9502  167.7957 C.ar    1  UNL1        0.0972
     26 C         143.7676  138.3866  166.9003 C.ar    1  UNL1        0.0229
     27 C         143.5616  138.3618  165.4148 C.ar    1  UNL1        0.0310
     28 C         142.2921  138.9006  164.8246 C.ar    1  UNL1        0.1399
     29 F         142.0860  138.8758  163.3390 F       1  UNL1       -0.2044
     30 C         141.2288  139.4642  165.7200 C.ar    1  UNL1        0.0497
     31 C         141.4349  139.4890  167.2056 C.ar    1  UNL1        0.0806
     32 N         140.3716  140.0526  168.1010 N.ar    1  UNL1       -0.2902
     33 C         139.3172  140.4601  167.1149 C.3     1  UNL1        0.1415
     34 C         139.8122  140.1203  165.7402 C.3     1  UNL1        0.1458
     35 O         140.0323  139.9001  164.2729 O.3     1  UNL1       -0.3793
     36 H         139.2600  140.2170  163.7789 H       1  UNL1        0.2108
@<TRIPOS>BOND
     1    21    22    2
     2    22    23   ar
     3    23    24   ar
     4    24    25   ar
     5    25    26   ar
     6    26    27   ar
     7    27    28   ar
     8    28    29    1
     9    28    30   ar
    10    30    31   ar
    11    31    32   ar
    12    32    33    1
    13    33    34    1
    14    34    35    1
    15    34    20    1
    16    20     1    1
    17     1     2    1
    18     2     3    1
    19     3     4    1
    20     4     7    1
    21     7     9    1
    22     9    10    1
    23    10    11   ar
    24    11    12   ar
    25    12    13   ar
    26    13    14   ar
    27    14    15   ar
    28    13    16    1
    29    16    17    1
    30    17    18    1
    31    18    19    1
    32     4     5    1
    33     5     6    1
    34    32    22   ar
    35     6     1    1
    36    31    25   ar
    37    15    10   ar
    38    34    30    1
    39    19    12    1
    40    35    36    1
    41     7     8    1
@<TRIPOS>MOLECULE
*****
 36 41 0 0 0
SMALL
GASTEIGER

@<TRIPOS>ATOM
      1 N         139.5114  144.3249  162.7376 N.3     1  UNL1       -0.2703
      2 C         138.5374  143.4166  162.0474 C.3     1  UNL1        0.0736
      3 C         137.8925  142.2940  162.8049 C.3     1  UNL1        0.0331
      4 C         138.2215  142.0797  164.2526 C.3     1  UNL1        0.0570
      5 C         139.1955  142.9880  164.9428 C.3     1  UNL1        0.0331
      6 C         139.8404  144.1106  164.1853 C.3     1  UNL1        0.0736
      7 N         137.5766  140.9571  165.0102 N.3     1  UNL1       -0.2934
      8 H         136.7089  140.7333  164.5229 H       1  UNL1        0.1236
      9 C         138.3108  139.6634  165.2033 C.3     1  UNL1        0.1152
     10 C         139.2008  139.1368  164.1168 C.ar    1  UNL1        0.0782
     11 C         140.6868  139.3179  164.2108 C.ar    1  UNL1        0.0562
     12 C         141.5768  138.7913  163.1243 C.ar    1  UNL1        0.1752
     13 C         140.9808  138.0836  161.9437 C.ar    1  UNL1        0.1914
     14 C         139.4948  137.9024  161.8496 C.ar    1  UNL1        0.1384
     15 N         138.6048  138.4290  162.9362 N.ar    1  UNL1       -0.2434
     16 O         141.8708  137.5569  160.8571 O.3     1  UNL1       -0.4668
     17 C         143.3569  137.7380  160.9512 C.3     1  UNL1        0.2527
     18 C         143.9529  138.4458  162.1318 C.3     1  UNL1        0.2526
     19 O         143.0629  138.9724  163.2183 O.3     1  UNL1       -0.4683
     20 C         140.1563  145.4474  161.9800 C.3     1  UNL1        0.1056
     21 O         144.1588  142.0213  161.5795 O.2     1  UNL1       -0.2653
     22 C         143.6953  142.6601  160.3040 C.ar    1  UNL1        0.2803
     23 C         144.3629  142.3141  159.0061 C.ar    1  UNL1        0.1594
     24 N         143.8994  142.9529  157.7306 N.ar    1  UNL1       -0.2374
     25 C         142.7683  143.9378  157.7529 C.ar    1  UNL1        0.0972
     26 C         142.3047  144.5767  156.4774 C.ar    1  UNL1        0.0229
     27 C         141.1736  145.5615  156.4997 C.ar    1  UNL1        0.0310
     28 C         140.5060  145.9076  157.7976 C.ar    1  UNL1        0.1399
     29 F         139.3749  146.8925  157.8200 F       1  UNL1       -0.2044
     30 C         140.9695  145.2688  159.0732 C.ar    1  UNL1        0.0497
     31 C         142.1007  144.2838  159.0508 C.ar    1  UNL1        0.0806
     32 N         142.5642  143.6450  160.3263 N.ar    1  UNL1       -0.2902
     33 C         141.6447  144.2638  161.3372 C.3     1  UNL1        0.1415
     34 C         140.7240  145.2013  160.6136 C.3     1  UNL1        0.1458
     35 O         139.6846  146.1902  160.1758 O.3     1  UNL1       -0.3793
     36 H         139.1792  146.4909  160.9471 H       1  UNL1        0.2108
@<TRIPOS>BOND
     1    21    22    2
     2    22    23   ar
     3    23    24   ar
     4    24    25   ar
     5    25    26   ar
     6    26    27   ar
     7    27    28   ar
     8    28    29    1
     9    28    30   ar
    10    30    31   ar
    11    31    32   ar
    12    32    33    1
    13    33    34    1
    14    34    35    1
    15    34    20    1
    16    20     1    1
    17     1     2    1
    18     2     3    1
    19     3     4    1
    20     4     7    1
    21     7     9    1
    22     9    10    1
    23    10    11   ar
    24    11    12   ar
    25    12    13   ar
    26    13    14   ar
    27    14    15   ar
    28    13    16    1
    29    16    17    1
    30    17    18    1
    31    18    19    1
    32     4     5    1
    33     5     6    1
    34    32    22   ar
    35     6     1    1
    36    31    25   ar
    37    15    10   ar
    38    34    30    1
    39    19    12    1
    40    35    36    1
    41     7     8    1
@<TRIPOS>MOLECULE
*****
 36 41 0 0 0
SMALL
GASTEIGER

@<TRIPOS>ATOM
      1 N         138.5896  139.0419  163.9033 N.3     1  UNL1       -0.2703
      2 C         137.9689  140.3693  163.5828 C.3     1  UNL1        0.0736
      3 C         137.5455  140.6795  162.1776 C.3     1  UNL1        0.0331
      4 C         137.7429  139.6623  161.0929 C.3     1  UNL1        0.0570
      5 C         138.3637  138.3350  161.4135 C.3     1  UNL1        0.0331
      6 C         138.7870  138.0248  162.8186 C.3     1  UNL1        0.0736
      7 N         137.3195  139.9726  159.6877 N.3     1  UNL1       -0.2934
      8 H         136.4098  140.4299  159.7485 H       1  UNL1        0.1236
      9 C         138.1823  140.8385  158.8183 C.3     1  UNL1        0.1152
     10 C         139.2801  141.6577  159.4297 C.ar    1  UNL1        0.0782
     11 C         140.6046  141.0254  159.7387 C.ar    1  UNL1        0.0562
     12 C         141.7024  141.8446  160.3501 C.ar    1  UNL1        0.1752
     13 C         141.4756  143.2961  160.6525 C.ar    1  UNL1        0.1914
     14 C         140.1510  143.9285  160.3435 C.ar    1  UNL1        0.1384
     15 N         139.0532  143.1093  159.7321 N.ar    1  UNL1       -0.2434
     16 O         142.5734  144.1154  161.2639 O.3     1  UNL1       -0.4668
     17 C         143.8980  143.4830  161.5729 C.3     1  UNL1        0.2527
     18 C         144.1248  142.0314  161.2705 C.3     1  UNL1        0.2526
     19 O         143.0271  141.2122  160.6592 O.3     1  UNL1       -0.4683
     20 C         139.0130  138.7317  165.3084 C.3     1  UNL1        0.1056
     21 O         138.0044  139.9144  170.3585 O.2     1  UNL1       -0.2653
     22 C         139.2430  140.5174  169.7650 C.ar    1  UNL1        0.2803
     23 C         140.1195  141.4038  170.5993 C.ar    1  UNL1        0.1594
     24 N         141.3581  142.0068  170.0058 N.ar    1  UNL1       -0.2374
     25 C         141.7202  141.7234  168.5780 C.ar    1  UNL1        0.0972
     26 C         142.9588  142.3264  167.9846 C.ar    1  UNL1        0.0229
     27 C         143.3210  142.0430  166.5568 C.ar    1  UNL1        0.0310
     28 C         142.4444  141.1566  165.7225 C.ar    1  UNL1        0.1399
     29 F         142.8066  140.8732  164.2947 F       1  UNL1       -0.2044
     30 C         141.2058  140.5536  166.3160 C.ar    1  UNL1        0.0497
     31 C         140.8437  140.8370  167.7438 C.ar    1  UNL1        0.0806
     32 N         139.6051  140.2340  168.3373 N.ar    1  UNL1       -0.2902
     33 C         139.0571  139.4480  167.1831 C.3     1  UNL1        0.1415
     34 C         139.9813  139.6325  166.0161 C.3     1  UNL1        0.1458
     35 O         140.7030  139.6287  164.7012 O.3     1  UNL1       -0.3793
     36 H         140.2187  139.0759  164.0682 H       1  UNL1        0.2108
@<TRIPOS>BOND
     1    21    22    2
     2    22    23   ar
     3    23    24   ar
     4    24    25   ar
     5    25    26   ar
     6    26    27   ar
     7    27    28   ar
     8    28    29    1
     9    28    30   ar
    10    30    31   ar
    11    31    32   ar
    12    32    33    1
    13    33    34    1
    14    34    35    1
    15    34    20    1
    16    20     1    1
    17     1     2    1
    18     2     3    1
    19     3     4    1
    20     4     7    1
    21     7     9    1
    22     9    10    1
    23    10    11   ar
    24    11    12   ar
    25    12    13   ar
    26    13    14   ar
    27    14    15   ar
    28    13    16    1
    29    16    17    1
    30    17    18    1
    31    18    19    1
    32     4     5    1
    33     5     6    1
    34    32    22   ar
    35     6     1    1
    36    31    25   ar
    37    15    10   ar
    38    34    30    1
    39    19    12    1
    40    35    36    1
    41     7     8    1
@<TRIPOS>MOLECULE
*****
 36 41 0 0 0
SMALL
GASTEIGER

@<TRIPOS>ATOM
      1 N         138.3349  141.6865  164.7312 N.3     1  UNL1       -0.2703
      2 C         138.2549  140.2350  165.1008 C.3     1  UNL1        0.0736
      3 C         139.1487  139.6834  166.1717 C.3     1  UNL1        0.0331
      4 C         140.1225  140.5834  166.8730 C.3     1  UNL1        0.0570
      5 C         140.2025  142.0349  166.5034 C.3     1  UNL1        0.0331
      6 C         139.3087  142.5865  165.4325 C.3     1  UNL1        0.0736
      7 N         141.0163  140.0317  167.9440 N.3     1  UNL1       -0.2934
      8 H         140.5146  139.2555  168.3754 H       1  UNL1        0.1236
      9 C         142.3824  139.5219  167.5918 C.3     1  UNL1        0.1152
     10 C         142.9085  139.6886  166.1970 C.ar    1  UNL1        0.0782
     11 C         142.6274  138.6427  165.1593 C.ar    1  UNL1        0.0562
     12 C         143.1535  138.8094  163.7646 C.ar    1  UNL1        0.1752
     13 C         143.9608  140.0221  163.4075 C.ar    1  UNL1        0.1914
     14 C         144.2419  141.0682  164.4452 C.ar    1  UNL1        0.1384
     15 N         143.7158  140.9014  165.8399 N.ar    1  UNL1       -0.2434
     16 O         144.4870  140.1889  162.0126 O.3     1  UNL1       -0.4668
     17 C         144.2058  139.1429  160.9750 C.3     1  UNL1        0.2527
     18 C         143.3985  137.9301  161.3321 C.3     1  UNL1        0.2526
     19 O         142.8724  137.7634  162.7268 O.3     1  UNL1       -0.4683
     20 C         137.4411  142.2381  163.6603 C.3     1  UNL1        0.1056
     21 O         140.2849  146.3505  161.9515 O.2     1  UNL1       -0.2653
     22 C         140.0006  145.2715  160.9491 C.ar    1  UNL1        0.2803
     23 C         140.5168  145.3960  159.5463 C.ar    1  UNL1        0.1594
     24 N         140.2325  144.3169  158.5439 N.ar    1  UNL1       -0.2374
     25 C         139.4319  143.1133  158.9443 C.ar    1  UNL1        0.0972
     26 C         139.1475  142.0343  157.9419 C.ar    1  UNL1        0.0229
     27 C         138.3470  140.8307  158.3424 C.ar    1  UNL1        0.0310
     28 C         137.8307  140.7061  159.7453 C.ar    1  UNL1        0.1399
     29 F         137.0301  139.5025  160.1457 F       1  UNL1       -0.2044
     30 C         138.1150  141.7852  160.7476 C.ar    1  UNL1        0.0497
     31 C         138.9157  142.9888  160.3471 C.ar    1  UNL1        0.0806
     32 N         139.2000  144.0679  161.3495 N.ar    1  UNL1       -0.2902
     33 C         138.5154  143.5421  162.5764 C.3     1  UNL1        0.1415
     34 C         137.8890  142.2242  162.2288 C.3     1  UNL1        0.1458
     35 O         137.1690  140.9092  162.1806 O.3     1  UNL1       -0.3793
     36 H         136.7853  140.7185  163.0508 H       1  UNL1        0.2108
@<TRIPOS>BOND
     1    21    22    2
     2    22    23   ar
     3    23    24   ar
     4    24    25   ar
     5    25    26   ar
     6    26    27   ar
     7    27    28   ar
     8    28    29    1
     9    28    30   ar
    10    30    31   ar
    11    31    32   ar
    12    32    33    1
    13    33    34    1
    14    34    35    1
    15    34    20    1
    16    20     1    1
    17     1     2    1
    18     2     3    1
    19     3     4    1
    20     4     7    1
    21     7     9    1
    22     9    10    1
    23    10    11   ar
    24    11    12   ar
    25    12    13   ar
    26    13    14   ar
    27    14    15   ar
    28    13    16    1
    29    16    17    1
    30    17    18    1
    31    18    19    1
    32     4     5    1
    33     5     6    1
    34    32    22   ar
    35     6     1    1
    36    31    25   ar
    37    15    10   ar
    38    34    30    1
    39    19    12    1
    40    35    36    1
    41     7     8    1
@<TRIPOS>MOLECULE
*****
 36 41 0 0 0
SMALL
GASTEIGER

@<TRIPOS>ATOM
      1 N         143.8135  140.0216  163.0257 N.3     1  UNL1       -0.2703
      2 C         144.1409  141.4834  163.1019 C.3     1  UNL1        0.0736
      3 C         144.2869  142.2859  161.8430 C.3     1  UNL1        0.0331
      4 C         144.1055  141.6265  160.5080 C.3     1  UNL1        0.0570
      5 C         143.7781  140.1647  160.4318 C.3     1  UNL1        0.0331
      6 C         143.6321  139.3622  161.6906 C.3     1  UNL1        0.0736
      7 N         144.2515  142.4291  159.2491 N.3     1  UNL1       -0.2934
      8 H         144.5735  141.7861  158.5257 H       1  UNL1        0.1236
      9 C         143.0697  143.1598  158.6842 C.3     1  UNL1        0.1152
     10 C         141.9649  143.6139  159.5915 C.ar    1  UNL1        0.0782
     11 C         140.9843  142.6180  160.1359 C.ar    1  UNL1        0.0562
     12 C         139.8796  143.0720  161.0433 C.ar    1  UNL1        0.1752
     13 C         139.7554  144.5221  161.4062 C.ar    1  UNL1        0.1914
     14 C         140.7360  145.5181  160.8618 C.ar    1  UNL1        0.1384
     15 N         141.8407  145.0640  159.9545 N.ar    1  UNL1       -0.2434
     16 O         138.6506  144.9763  162.3136 O.3     1  UNL1       -0.4668
     17 C         137.6700  143.9802  162.8580 C.3     1  UNL1        0.2527
     18 C         137.7942  142.5301  162.4950 C.3     1  UNL1        0.2526
     19 O         138.8989  142.0760  161.5877 O.3     1  UNL1       -0.4683
     20 C         143.6675  139.2191  164.2845 C.3     1  UNL1        0.1056
     21 O         143.3304  142.2226  168.6186 O.2     1  UNL1       -0.2653
     22 C         142.1024  141.4457  168.2463 C.ar    1  UNL1        0.2803
     23 C         140.8663  141.5471  169.0898 C.ar    1  UNL1        0.1594
     24 N         139.6384  140.7702  168.7175 N.ar    1  UNL1       -0.2374
     25 C         139.6466  139.8919  167.5016 C.ar    1  UNL1        0.0972
     26 C         138.4186  139.1151  167.1292 C.ar    1  UNL1        0.0229
     27 C         138.4268  138.2368  165.9133 C.ar    1  UNL1        0.0310
     28 C         139.6630  138.1354  165.0696 C.ar    1  UNL1        0.1399
     29 F         139.6712  137.2571  163.8537 F       1  UNL1       -0.2044
     30 C         140.8910  138.9122  165.4420 C.ar    1  UNL1        0.0497
     31 C         140.8827  139.7906  166.6580 C.ar    1  UNL1        0.0806
     32 N         142.1106  140.5674  167.0304 N.ar    1  UNL1       -0.2902
     33 C         143.0687  140.1757  165.9446 C.3     1  UNL1        0.1415
     34 C         142.3645  139.2200  165.0276 C.3     1  UNL1        0.1458
     35 O         141.9327  138.2642  163.9552 O.3     1  UNL1       -0.3793
     36 H         142.6661  138.1189  163.3372 H       1  UNL1        0.2108
@<TRIPOS>BOND
     1    21    22    2
     2    22    23   ar
     3    23    24   ar
     4    24    25   ar
     5    25    26   ar
     6    26    27   ar
     7    27    28   ar
     8    28    29    1
     9    28    30   ar
    10    30    31   ar
    11    31    32   ar
    12    32    33    1
    13    33    34    1
    14    34    35    1
    15    34    20    1
    16    20     1    1
    17     1     2    1
    18     2     3    1
    19     3     4    1
    20     4     7    1
    21     7     9    1
    22     9    10    1
    23    10    11   ar
    24    11    12   ar
    25    12    13   ar
    26    13    14   ar
    27    14    15   ar
    28    13    16    1
    29    16    17    1
    30    17    18    1
    31    18    19    1
    32     4     5    1
    33     5     6    1
    34    32    22   ar
    35     6     1    1
    36    31    25   ar
    37    15    10   ar
    38    34    30    1
    39    19    12    1
    40    35    36    1
    41     7     8    1
@<TRIPOS>MOLECULE
*****
 36 41 0 0 0
SMALL
GASTEIGER

@<TRIPOS>ATOM
      1 N         143.0424  142.8581  164.2836 N.3     1  UNL1       -0.2703
      2 C         142.1741  144.0735  164.4212 C.3     1  UNL1        0.0736
      3 C         141.8145  144.8795  163.2084 C.3     1  UNL1        0.0331
      4 C         142.3232  144.4701  161.8579 C.3     1  UNL1        0.0570
      5 C         143.1915  143.2547  161.7203 C.3     1  UNL1        0.0331
      6 C         143.5511  142.4487  162.9332 C.3     1  UNL1        0.0736
      7 N         141.9636  145.2762  160.6450 N.3     1  UNL1       -0.2934
      8 H         142.5749  144.9625  159.8912 H       1  UNL1        0.1236
      9 C         140.5629  145.2413  160.1096 C.3     1  UNL1        0.1152
     10 C         139.8512  143.9298  159.9560 C.ar    1  UNL1        0.0782
     11 C         139.5049  143.1179  161.1686 C.ar    1  UNL1        0.0562
     12 C         138.7932  141.8065  161.0150 C.ar    1  UNL1        0.1752
     13 C         138.4278  141.3070  159.6487 C.ar    1  UNL1        0.1914
     14 C         138.7741  142.1189  158.4359 C.ar    1  UNL1        0.1384
     15 N         139.4858  143.4303  158.5896 N.ar    1  UNL1       -0.2434
     16 O         137.7161  139.9955  159.4950 O.3     1  UNL1       -0.4668
     17 C         137.3697  139.1835  160.7078 C.3     1  UNL1        0.2527
     18 C         137.7351  139.6831  162.0742 C.3     1  UNL1        0.2526
     19 O         138.4468  140.9945  162.2278 O.3     1  UNL1       -0.4683
     20 C         143.4020  142.0521  165.4965 C.3     1  UNL1        0.1056
     21 O         143.6530  143.4858  170.5759 O.2     1  UNL1       -0.2653
     22 C         142.4996  142.6104  170.1844 C.ar    1  UNL1        0.2803
     23 C         141.4943  142.1890  171.2148 C.ar    1  UNL1        0.1594
     24 N         140.3409  141.3136  170.8233 N.ar    1  UNL1       -0.2374
     25 C         140.1926  140.8597  169.4014 C.ar    1  UNL1        0.0972
     26 C         139.0392  139.9843  169.0099 C.ar    1  UNL1        0.0229
     27 C         138.8910  139.5304  167.5879 C.ar    1  UNL1        0.0310
     28 C         139.8962  139.9519  166.5574 C.ar    1  UNL1        0.1399
     29 F         139.7480  139.4980  165.1355 F       1  UNL1       -0.2044
     30 C         141.0497  140.8272  166.9489 C.ar    1  UNL1        0.0497
     31 C         141.1979  141.2812  168.3710 C.ar    1  UNL1        0.0806
     32 N         142.3513  142.1565  168.7625 N.ar    1  UNL1       -0.2902
     33 C         143.0752  142.3202  167.4589 C.3     1  UNL1        0.1415
     34 C         142.3236  141.5527  166.4118 C.3     1  UNL1        0.1458
     35 O         141.7976  140.8897  165.1734 O.3     1  UNL1       -0.3793
     36 H         142.3789  141.0954  164.4247 H       1  UNL1        0.2108
@<TRIPOS>BOND
     1    21    22    2
     2    22    23   ar
     3    23    24   ar
     4    24    25   ar
     5    25    26   ar
     6    26    27   ar
     7    27    28   ar
     8    28    29    1
     9    28    30   ar
    10    30    31   ar
    11    31    32   ar
    12    32    33    1
    13    33    34    1
    14    34    35    1
    15    34    20    1
    16    20     1    1
    17     1     2    1
    18     2     3    1
    19     3     4    1
    20     4     7    1
    21     7     9    1
    22     9    10    1
    23    10    11   ar
    24    11    12   ar
    25    12    13   ar
    26    13    14   ar
    27    14    15   ar
    28    13    16    1
    29    16    17    1
    30    17    18    1
    31    18    19    1
    32     4     5    1
    33     5     6    1
    34    32    22   ar
    35     6     1    1
    36    31    25   ar
    37    15    10   ar
    38    34    30    1
    39    19    12    1
    40    35    36    1
    41     7     8    1
