@<TRIPOS>MOLECULE
*****
 34 38 0 0 0
SMALL
GASTEIGER

@<TRIPOS>ATOM
      1 C         141.2345  139.1715  161.1502 C.3     1  UNL1        0.1754
      2 C         141.4666  138.5665  159.7974 C.ar    1  UNL1        0.0089
      3 C         142.6758  137.9336  159.1751 C.ar    1  UNL1       -0.0021
      4 C         142.6080  137.4056  157.7728 C.ar    1  UNL1       -0.0003
      5 C         141.3311  137.5106  156.9927 C.ar    1  UNL1        0.0001
      6 C         140.1220  138.1436  157.6150 C.ar    1  UNL1        0.0043
      7 C         140.1897  138.6715  159.0174 C.ar    1  UNL1        0.0517
      8 C         139.1684  139.3414  159.8881 C.2     1  UNL1        0.2496
      9 O         137.7504  139.6484  159.5074 O.2     1  UNL1       -0.2699
     10 N         139.8141  139.6505  161.2063 N.am    1  UNL1       -0.2620
     11 O         142.9190  138.0448  162.7758 O.2     1  UNL1       -0.2729
     12 C         142.2453  139.2788  162.2533 C.2     1  UNL1        0.2452
     13 N         142.5823  140.6203  162.8339 N.am    1  UNL1       -0.2988
     14 H         142.1401  141.4303  162.4909 H       1  UNL1        0.1498
     15 C         143.5931  140.7275  163.9370 C.3     1  UNL1        0.1165
     16 C         143.1388  140.8436  165.3618 C.ar    1  UNL1        0.0005
     17 C         142.3868  139.7155  166.0034 C.ar    1  UNL1        0.0181
     18 C         141.9324  139.8316  167.4283 C.ar    1  UNL1        0.0986
     19 N         142.2302  141.0758  168.2115 N.ar    1  UNL1       -0.2423
     20 C         142.9822  142.2039  167.5698 C.ar    1  UNL1        0.0986
     21 C         143.4366  142.0878  166.1449 C.ar    1  UNL1        0.0181
     22 C         139.1551  140.3207  162.3752 C.3     1  UNL1        0.1212
     23 C         138.8944  139.5477  163.6339 C.ar    1  UNL1       -0.0023
     24 C         138.8687  138.0482  163.6014 C.ar    1  UNL1       -0.0026
     25 C         138.6080  137.2751  164.8601 C.ar    1  UNL1       -0.0003
     26 C         138.3730  138.0014  166.1514 C.ar    1  UNL1       -0.0000
     27 C         138.3987  139.5008  166.1839 C.ar    1  UNL1       -0.0003
     28 C         138.6594  140.2740  164.9251 C.ar    1  UNL1       -0.0024
     29 C         138.6851  141.7734  164.9576 C.ar    1  UNL1       -0.0003
     30 C         137.5783  142.5565  164.3161 C.ar    1  UNL1       -0.0000
     31 C         137.6039  144.0559  164.3486 C.ar    1  UNL1       -0.0000
     32 C         138.7365  144.7722  165.0227 C.ar    1  UNL1       -0.0000
     33 C         139.8433  143.9891  165.6642 C.ar    1  UNL1       -0.0000
     34 C         139.8176  142.4896  165.6317 C.ar    1  UNL1       -0.0000
@<TRIPOS>BOND
     1    11    12    2
     2    12    13   am
     3    13    15    1
     4    15    16    1
     5    16    17   ar
     6    17    18   ar
     7    18    19   ar
     8    19    20   ar
     9    20    21   ar
    10    12     1    1
    11     1     2    1
    12     2     3   ar
    13     3     4   ar
    14     4     5   ar
    15     5     6   ar
    16     6     7   ar
    17     7     8    1
    18     8     9    2
    19     8    10   am
    20    10    22    1
    21    22    23    1
    22    23    24   ar
    23    24    25   ar
    24    25    26   ar
    25    26    27   ar
    26    27    28   ar
    27    28    29    1
    28    29    30   ar
    29    30    31   ar
    30    31    32   ar
    31    32    33   ar
    32    33    34   ar
    33    21    16   ar
    34    10     1    1
    35    28    23   ar
    36    34    29   ar
    37     7     2   ar
    38    13    14    1
@<TRIPOS>MOLECULE
*****
 34 38 0 0 0
SMALL
GASTEIGER

@<TRIPOS>ATOM
      1 C         141.2243  141.5461  166.8013 C.3     1  UNL1        0.1754
      2 C         141.3164  141.7580  168.2834 C.ar    1  UNL1        0.0089
      3 C         142.1974  142.6390  169.1185 C.ar    1  UNL1       -0.0021
      4 C         142.0582  142.6395  170.6120 C.ar    1  UNL1       -0.0003
      5 C         141.0379  141.7589  171.2704 C.ar    1  UNL1        0.0001
      6 C         140.1568  140.8778  170.4353 C.ar    1  UNL1        0.0043
      7 C         140.2960  140.8774  168.9418 C.ar    1  UNL1        0.0517
      8 C         139.5734  140.1213  167.8666 C.2     1  UNL1        0.2496
      9 O         138.4707  139.1265  168.0773 O.2     1  UNL1       -0.2699
     10 N         140.1471  140.5345  166.5437 N.am    1  UNL1       -0.2620
     11 O         143.4651  141.7609  165.5042 O.2     1  UNL1       -0.2729
     12 C         142.0623  142.2264  165.7597 C.2     1  UNL1        0.2452
     13 N         141.4975  143.3722  164.9735 N.am    1  UNL1       -0.2988
     14 H         140.5767  143.6778  165.1411 H       1  UNL1        0.1498
     15 C         142.3355  144.0525  163.9318 C.3     1  UNL1        0.1165
     16 C         141.7010  144.5525  162.6680 C.ar    1  UNL1        0.0005
     17 C         140.5693  145.5347  162.7346 C.ar    1  UNL1        0.0181
     18 C         139.9349  146.0347  161.4707 C.ar    1  UNL1        0.0986
     19 N         140.4321  145.5525  160.1401 N.ar    1  UNL1       -0.2423
     20 C         141.5638  144.5703  160.0735 C.ar    1  UNL1        0.0986
     21 C         142.1983  144.0703  161.3375 C.ar    1  UNL1        0.0181
     22 C         139.7188  140.0256  165.1992 C.3     1  UNL1        0.1212
     23 C         139.1727  140.9771  164.1762 C.ar    1  UNL1       -0.0023
     24 C         138.0495  141.9034  164.5375 C.ar    1  UNL1       -0.0026
     25 C         137.5035  142.8549  163.5146 C.ar    1  UNL1       -0.0003
     26 C         138.0806  142.8801  162.1302 C.ar    1  UNL1       -0.0000
     27 C         139.2037  141.9538  161.7689 C.ar    1  UNL1       -0.0003
     28 C         139.7498  141.0023  162.7919 C.ar    1  UNL1       -0.0024
     29 C         140.8730  140.0760  162.4306 C.ar    1  UNL1       -0.0003
     30 C         142.2920  140.5585  162.4911 C.ar    1  UNL1       -0.0000
     31 C         143.4151  139.6323  162.1297 C.ar    1  UNL1       -0.0000
     32 C         143.1192  138.2235  161.7079 C.ar    1  UNL1       -0.0000
     33 C         141.7002  137.7410  161.6474 C.ar    1  UNL1       -0.0000
     34 C         140.5771  138.6673  162.0088 C.ar    1  UNL1       -0.0000
@<TRIPOS>BOND
     1    11    12    2
     2    12    13   am
     3    13    15    1
     4    15    16    1
     5    16    17   ar
     6    17    18   ar
     7    18    19   ar
     8    19    20   ar
     9    20    21   ar
    10    12     1    1
    11     1     2    1
    12     2     3   ar
    13     3     4   ar
    14     4     5   ar
    15     5     6   ar
    16     6     7   ar
    17     7     8    1
    18     8     9    2
    19     8    10   am
    20    10    22    1
    21    22    23    1
    22    23    24   ar
    23    24    25   ar
    24    25    26   ar
    25    26    27   ar
    26    27    28   ar
    27    28    29    1
    28    29    30   ar
    29    30    31   ar
    30    31    32   ar
    31    32    33   ar
    32    33    34   ar
    33    21    16   ar
    34    10     1    1
    35    28    23   ar
    36    34    29   ar
    37     7     2   ar
    38    13    14    1
@<TRIPOS>MOLECULE
*****
 34 38 0 0 0
SMALL
GASTEIGER

@<TRIPOS>ATOM
      1 C         141.9038  140.3197  163.7366 C.3     1  UNL1        0.1754
      2 C         142.8081  141.4102  163.2437 C.ar    1  UNL1        0.0089
      3 C         144.0773  141.9880  163.7961 C.ar    1  UNL1       -0.0021
      4 C         144.7761  143.0971  163.0671 C.ar    1  UNL1       -0.0003
      5 C         144.2056  143.6285  161.7856 C.ar    1  UNL1        0.0001
      6 C         142.9364  143.0507  161.2331 C.ar    1  UNL1        0.0043
      7 C         142.2377  141.9415  161.9622 C.ar    1  UNL1        0.0517
      8 C         140.9808  141.1794  161.6632 C.2     1  UNL1        0.2496
      9 O         140.0871  141.3838  160.4759 O.2     1  UNL1       -0.2699
     10 N         140.7744  140.1770  162.7598 N.am    1  UNL1       -0.2620
     11 O         142.3991  138.0474  164.8949 O.2     1  UNL1       -0.2729
     12 C         142.0953  139.5134  164.9869 C.2     1  UNL1        0.2452
     13 N         141.9830  140.1732  166.3294 N.am    1  UNL1       -0.2988
     14 H         141.7836  141.1354  166.3899 H       1  UNL1        0.1498
     15 C         142.1745  139.3669  167.5797 C.3     1  UNL1        0.1165
     16 C         141.6725  139.8892  168.8932 C.ar    1  UNL1        0.0005
     17 C         140.1981  140.0311  169.1299 C.ar    1  UNL1        0.0181
     18 C         139.6963  140.5535  170.4433 C.ar    1  UNL1        0.0986
     19 N         140.6688  140.9340  171.5202 N.ar    1  UNL1       -0.2423
     20 C         142.1431  140.7922  171.2835 C.ar    1  UNL1        0.0986
     21 C         142.6450  140.2698  169.9699 C.ar    1  UNL1        0.0181
     22 C         139.6382  139.2031  162.8618 C.3     1  UNL1        0.1212
     23 C         139.0168  138.9126  164.1957 C.ar    1  UNL1       -0.0023
     24 C         138.9628  137.5034  164.7071 C.ar    1  UNL1       -0.0026
     25 C         138.3414  137.2129  166.0410 C.ar    1  UNL1       -0.0003
     26 C         137.7740  138.3315  166.8637 C.ar    1  UNL1       -0.0000
     27 C         137.8280  139.7406  166.3524 C.ar    1  UNL1       -0.0003
     28 C         138.4494  140.0312  165.0184 C.ar    1  UNL1       -0.0024
     29 C         138.5034  141.4403  164.5072 C.ar    1  UNL1       -0.0003
     30 C         137.6189  141.8603  163.3709 C.ar    1  UNL1       -0.0000
     31 C         137.6729  143.2694  162.8596 C.ar    1  UNL1       -0.0000
     32 C         138.6115  144.2586  163.4847 C.ar    1  UNL1       -0.0000
     33 C         139.4960  143.8386  164.6210 C.ar    1  UNL1       -0.0000
     34 C         139.4420  142.4294  165.1322 C.ar    1  UNL1       -0.0000
@<TRIPOS>BOND
     1    11    12    2
     2    12    13   am
     3    13    15    1
     4    15    16    1
     5    16    17   ar
     6    17    18   ar
     7    18    19   ar
     8    19    20   ar
     9    20    21   ar
    10    12     1    1
    11     1     2    1
    12     2     3   ar
    13     3     4   ar
    14     4     5   ar
    15     5     6   ar
    16     6     7   ar
    17     7     8    1
    18     8     9    2
    19     8    10   am
    20    10    22    1
    21    22    23    1
    22    23    24   ar
    23    24    25   ar
    24    25    26   ar
    25    26    27   ar
    26    27    28   ar
    27    28    29    1
    28    29    30   ar
    29    30    31   ar
    30    31    32   ar
    31    32    33   ar
    32    33    34   ar
    33    21    16   ar
    34    10     1    1
    35    28    23   ar
    36    34    29   ar
    37     7     2   ar
    38    13    14    1
@<TRIPOS>MOLECULE
*****
 34 38 0 0 0
SMALL
GASTEIGER

@<TRIPOS>ATOM
      1 C         140.3003  142.1441  166.2970 C.3     1  UNL1        0.1754
      2 C         141.1946  141.7651  167.4400 C.ar    1  UNL1        0.0089
      3 C         142.3714  142.4540  168.0649 C.ar    1  UNL1       -0.0021
      4 C         143.0843  141.8194  169.2221 C.ar    1  UNL1       -0.0003
      5 C         142.6204  140.4960  169.7544 C.ar    1  UNL1        0.0001
      6 C         141.4436  139.8071  169.1295 C.ar    1  UNL1        0.0043
      7 C         140.7307  140.4416  167.9723 C.ar    1  UNL1        0.0517
      8 C         139.5498  140.0028  167.1582 C.2     1  UNL1        0.2496
      9 O         138.7714  138.7344  167.3465 O.2     1  UNL1       -0.2699
     10 N         139.2838  141.0550  166.1228 N.am    1  UNL1       -0.2620
     11 O         139.3027  144.4103  165.5101 O.2     1  UNL1       -0.2729
     12 C         140.4044  143.3931  165.4728 C.2     1  UNL1        0.2452
     13 N         141.6104  143.6249  164.6113 N.am    1  UNL1       -0.2988
     14 H         142.3335  142.9573  164.5868 H       1  UNL1        0.1498
     15 C         141.7144  144.8739  163.7871 C.3     1  UNL1        0.1165
     16 C         141.5256  144.8093  162.3005 C.ar    1  UNL1        0.0005
     17 C         140.4614  145.6369  161.6429 C.ar    1  UNL1        0.0181
     18 C         140.2727  145.5722  160.1563 C.ar    1  UNL1        0.0986
     19 N         141.1481  144.6799  159.3271 N.ar    1  UNL1       -0.2423
     20 C         142.2124  143.8523  159.9847 C.ar    1  UNL1        0.0986
     21 C         142.4011  143.9170  161.4715 C.ar    1  UNL1        0.0181
     22 C         138.1927  141.0236  165.0938 C.3     1  UNL1        0.1212
     23 C         138.4936  141.3884  163.6703 C.ar    1  UNL1       -0.0023
     24 C         137.6742  142.4350  162.9750 C.ar    1  UNL1       -0.0026
     25 C         137.9751  142.7997  161.5515 C.ar    1  UNL1       -0.0003
     26 C         139.0953  142.1179  160.8233 C.ar    1  UNL1       -0.0000
     27 C         139.9146  141.0714  161.5185 C.ar    1  UNL1       -0.0003
     28 C         139.6138  140.7066  162.9421 C.ar    1  UNL1       -0.0024
     29 C         140.4331  139.6600  163.6373 C.ar    1  UNL1       -0.0003
     30 C         141.8250  139.9796  164.0962 C.ar    1  UNL1       -0.0000
     31 C         142.6443  138.9331  164.7915 C.ar    1  UNL1       -0.0000
     32 C         142.0718  137.5669  165.0279 C.ar    1  UNL1       -0.0000
     33 C         140.6799  137.2473  164.5690 C.ar    1  UNL1       -0.0000
     34 C         139.8606  138.2939  163.8737 C.ar    1  UNL1       -0.0000
@<TRIPOS>BOND
     1    11    12    2
     2    12    13   am
     3    13    15    1
     4    15    16    1
     5    16    17   ar
     6    17    18   ar
     7    18    19   ar
     8    19    20   ar
     9    20    21   ar
    10    12     1    1
    11     1     2    1
    12     2     3   ar
    13     3     4   ar
    14     4     5   ar
    15     5     6   ar
    16     6     7   ar
    17     7     8    1
    18     8     9    2
    19     8    10   am
    20    10    22    1
    21    22    23    1
    22    23    24   ar
    23    24    25   ar
    24    25    26   ar
    25    26    27   ar
    26    27    28   ar
    27    28    29    1
    28    29    30   ar
    29    30    31   ar
    30    31    32   ar
    31    32    33   ar
    32    33    34   ar
    33    21    16   ar
    34    10     1    1
    35    28    23   ar
    36    34    29   ar
    37     7     2   ar
    38    13    14    1
@<TRIPOS>MOLECULE
*****
 34 38 0 0 0
SMALL
GASTEIGER

@<TRIPOS>ATOM
      1 C         142.1757  140.4611  166.3105 C.3     1  UNL1        0.1754
      2 C         141.9919  140.2336  167.7817 C.ar    1  UNL1        0.0089
      3 C         142.4649  139.1420  168.6954 C.ar    1  UNL1       -0.0021
      4 C         142.1183  139.1823  170.1542 C.ar    1  UNL1       -0.0003
      5 C         141.2986  140.3141  170.6994 C.ar    1  UNL1        0.0001
      6 C         140.8256  141.4057  169.7857 C.ar    1  UNL1        0.0043
      7 C         141.1722  141.3654  168.3269 C.ar    1  UNL1        0.0517
      8 C         140.8496  142.2923  167.1926 C.2     1  UNL1        0.2496
      9 O         140.0475  143.5563  167.2879 O.2     1  UNL1       -0.2699
     10 N         141.4697  141.7335  165.9464 N.am    1  UNL1       -0.2620
     11 O         142.7321  138.0865  165.4152 O.2     1  UNL1       -0.2729
     12 C         142.9327  139.5722  165.3688 C.2     1  UNL1        0.2452
     13 N         143.8904  140.1692  164.3805 N.am    1  UNL1       -0.2988
     14 H         144.0221  141.1443  164.3500 H       1  UNL1        0.1498
     15 C         144.6473  139.2803  163.4387 C.3     1  UNL1        0.1165
     16 C         144.1684  139.1009  162.0286 C.ar    1  UNL1        0.0005
     17 C         143.6559  137.7663  161.5746 C.ar    1  UNL1        0.0181
     18 C         143.1770  137.5871  160.1644 C.ar    1  UNL1        0.0986
     19 N         143.2106  138.7424  159.2083 N.ar    1  UNL1       -0.2423
     20 C         143.7230  140.0770  159.6623 C.ar    1  UNL1        0.0986
     21 C         144.2020  140.2563  161.0725 C.ar    1  UNL1        0.0181
     22 C         141.3968  142.3404  164.5767 C.3     1  UNL1        0.1212
     23 C         140.1066  142.9253  164.0832 C.ar    1  UNL1       -0.0023
     24 C         140.0325  144.3787  163.7199 C.ar    1  UNL1       -0.0026
     25 C         138.7424  144.9636  163.2264 C.ar    1  UNL1       -0.0003
     26 C         137.5263  144.0950  163.0964 C.ar    1  UNL1       -0.0000
     27 C         137.6005  142.6416  163.4597 C.ar    1  UNL1       -0.0003
     28 C         138.8906  142.0567  163.9532 C.ar    1  UNL1       -0.0024
     29 C         138.9647  140.6033  164.3165 C.ar    1  UNL1       -0.0003
     30 C         138.3886  140.1248  165.6161 C.ar    1  UNL1       -0.0000
     31 C         138.4627  138.6714  165.9795 C.ar    1  UNL1       -0.0000
     32 C         139.1130  137.6964  165.0432 C.ar    1  UNL1       -0.0000
     33 C         139.6892  138.1749  163.7436 C.ar    1  UNL1       -0.0000
     34 C         139.6150  139.6284  163.3802 C.ar    1  UNL1       -0.0000
@<TRIPOS>BOND
     1    11    12    2
     2    12    13   am
     3    13    15    1
     4    15    16    1
     5    16    17   ar
     6    17    18   ar
     7    18    19   ar
     8    19    20   ar
     9    20    21   ar
    10    12     1    1
    11     1     2    1
    12     2     3   ar
    13     3     4   ar
    14     4     5   ar
    15     5     6   ar
    16     6     7   ar
    17     7     8    1
    18     8     9    2
    19     8    10   am
    20    10    22    1
    21    22    23    1
    22    23    24   ar
    23    24    25   ar
    24    25    26   ar
    25    26    27   ar
    26    27    28   ar
    27    28    29    1
    28    29    30   ar
    29    30    31   ar
    30    31    32   ar
    31    32    33   ar
    32    33    34   ar
    33    21    16   ar
    34    10     1    1
    35    28    23   ar
    36    34    29   ar
    37     7     2   ar
    38    13    14    1
@<TRIPOS>MOLECULE
*****
 34 38 0 0 0
SMALL
GASTEIGER

@<TRIPOS>ATOM
      1 C         139.8954  141.5311  164.2015 C.3     1  UNL1        0.1754
      2 C         139.5080  140.1213  163.8660 C.ar    1  UNL1        0.0089
      3 C         139.2751  139.4291  162.5558 C.ar    1  UNL1       -0.0021
      4 C         138.8889  137.9799  162.5315 C.ar    1  UNL1       -0.0003
      5 C         138.7355  137.2229  163.8174 C.ar    1  UNL1        0.0001
      6 C         138.9684  137.9151  165.1275 C.ar    1  UNL1        0.0043
      7 C         139.3546  139.3643  165.1519 C.ar    1  UNL1        0.0517
      8 C         139.6472  140.3062  166.2820 C.2     1  UNL1        0.2496
      9 O         139.6118  139.9683  167.7430 O.2     1  UNL1       -0.2699
     10 N         139.9814  141.6454  165.6946 N.am    1  UNL1       -0.2620
     11 O         139.0731  143.0518  162.2621 O.2     1  UNL1       -0.2729
     12 C         140.1517  142.6331  163.2166 C.2     1  UNL1        0.2452
     13 N         141.4868  143.3163  163.1863 N.am    1  UNL1       -0.2988
     14 H         142.1947  143.0415  163.8128 H       1  UNL1        0.1498
     15 C         141.7431  144.4183  162.2015 C.3     1  UNL1        0.1165
     16 C         142.2010  144.0902  160.8113 C.ar    1  UNL1        0.0005
     17 C         143.3306  143.1257  160.6018 C.ar    1  UNL1        0.0181
     18 C         143.7884  142.7976  159.2116 C.ar    1  UNL1        0.0986
     19 N         143.1169  143.4340  158.0308 N.ar    1  UNL1       -0.2423
     20 C         141.9873  144.3985  158.2404 C.ar    1  UNL1        0.0986
     21 C         141.5294  144.7266  159.6307 C.ar    1  UNL1        0.0181
     22 C         140.3389  142.8817  166.4651 C.3     1  UNL1        0.1212
     23 C         141.0973  142.7689  167.7544 C.ar    1  UNL1       -0.0023
     24 C         140.4164  143.0787  169.0546 C.ar    1  UNL1       -0.0026
     25 C         141.1747  142.9659  170.3438 C.ar    1  UNL1       -0.0003
     26 C         142.6140  142.5434  170.3329 C.ar    1  UNL1       -0.0000
     27 C         143.2948  142.2336  169.0327 C.ar    1  UNL1       -0.0003
     28 C         142.5365  142.3464  167.7434 C.ar    1  UNL1       -0.0024
     29 C         143.2173  142.0366  166.4433 C.ar    1  UNL1       -0.0003
     30 C         143.9855  143.1065  165.7254 C.ar    1  UNL1       -0.0000
     31 C         144.6664  142.7967  164.4252 C.ar    1  UNL1       -0.0000
     32 C         144.5791  141.4171  163.8429 C.ar    1  UNL1       -0.0000
     33 C         143.8109  140.3472  164.5608 C.ar    1  UNL1       -0.0000
     34 C         143.1300  140.6570  165.8610 C.ar    1  UNL1       -0.0000
@<TRIPOS>BOND
     1    11    12    2
     2    12    13   am
     3    13    15    1
     4    15    16    1
     5    16    17   ar
     6    17    18   ar
     7    18    19   ar
     8    19    20   ar
     9    20    21   ar
    10    12     1    1
    11     1     2    1
    12     2     3   ar
    13     3     4   ar
    14     4     5   ar
    15     5     6   ar
    16     6     7   ar
    17     7     8    1
    18     8     9    2
    19     8    10   am
    20    10    22    1
    21    22    23    1
    22    23    24   ar
    23    24    25   ar
    24    25    26   ar
    25    26    27   ar
    26    27    28   ar
    27    28    29    1
    28    29    30   ar
    29    30    31   ar
    30    31    32   ar
    31    32    33   ar
    32    33    34   ar
    33    21    16   ar
    34    10     1    1
    35    28    23   ar
    36    34    29   ar
    37     7     2   ar
    38    13    14    1
@<TRIPOS>MOLECULE
*****
 34 38 0 0 0
SMALL
GASTEIGER

@<TRIPOS>ATOM
      1 C         140.9377  141.4280  166.6319 C.3     1  UNL1        0.1754
      2 C         141.5779  141.1280  167.9548 C.ar    1  UNL1        0.0089
      3 C         142.8785  141.5632  168.5622 C.ar    1  UNL1       -0.0021
      4 C         143.2605  141.0919  169.9340 C.ar    1  UNL1       -0.0003
      5 C         142.3419  140.1854  170.6985 C.ar    1  UNL1        0.0001
      6 C         141.0412  139.7503  170.0911 C.ar    1  UNL1        0.0043
      7 C         140.6592  140.2216  168.7193 C.ar    1  UNL1        0.0517
      8 C         139.4514  139.9613  167.8688 C.2     1  UNL1        0.2496
      9 O         138.2775  139.1057  168.2428 O.2     1  UNL1       -0.2699
     10 N         139.6235  140.7069  166.5787 N.am    1  UNL1       -0.2620
     11 O         140.8724  143.6152  165.2313 O.2     1  UNL1       -0.2729
     12 C         141.5112  142.2965  165.5517 C.2     1  UNL1        0.2452
     13 N         142.7238  141.8463  164.7919 N.am    1  UNL1       -0.2988
     14 H         143.1431  140.9807  165.0022 H       1  UNL1        0.1498
     15 C         143.2973  142.7148  163.7117 C.3     1  UNL1        0.1165
     16 C         143.5001  142.1609  162.3326 C.ar    1  UNL1        0.0005
     17 C         144.1226  143.0125  161.2663 C.ar    1  UNL1        0.0181
     18 C         144.3254  142.4585  159.8872 C.ar    1  UNL1        0.0986
     19 N         143.9057  141.0528  159.5743 N.ar    1  UNL1       -0.2423
     20 C         143.2832  140.2011  160.6407 C.ar    1  UNL1        0.0986
     21 C         143.0804  140.7551  162.0199 C.ar    1  UNL1        0.0181
     22 C         138.6520  140.7278  165.4360 C.3     1  UNL1        0.1212
     23 C         138.8987  139.8761  164.2262 C.ar    1  UNL1       -0.0023
     24 C         138.9940  138.3855  164.3650 C.ar    1  UNL1       -0.0026
     25 C         139.2407  137.5338  163.1552 C.ar    1  UNL1       -0.0003
     26 C         139.3920  138.1726  161.8065 C.ar    1  UNL1       -0.0000
     27 C         139.2967  139.6631  161.6676 C.ar    1  UNL1       -0.0003
     28 C         139.0500  140.5149  162.8775 C.ar    1  UNL1       -0.0024
     29 C         138.9546  142.0054  162.7386 C.ar    1  UNL1       -0.0003
     30 C         137.7888  142.7407  163.3301 C.ar    1  UNL1       -0.0000
     31 C         137.6934  144.2312  163.1913 C.ar    1  UNL1       -0.0000
     32 C         138.7640  144.9864  162.4607 C.ar    1  UNL1       -0.0000
     33 C         139.9299  144.2511  161.8691 C.ar    1  UNL1       -0.0000
     34 C         140.0252  142.7605  162.0081 C.ar    1  UNL1       -0.0000
@<TRIPOS>BOND
     1    11    12    2
     2    12    13   am
     3    13    15    1
     4    15    16    1
     5    16    17   ar
     6    17    18   ar
     7    18    19   ar
     8    19    20   ar
     9    20    21   ar
    10    12     1    1
    11     1     2    1
    12     2     3   ar
    13     3     4   ar
    14     4     5   ar
    15     5     6   ar
    16     6     7   ar
    17     7     8    1
    18     8     9    2
    19     8    10   am
    20    10    22    1
    21    22    23    1
    22    23    24   ar
    23    24    25   ar
    24    25    26   ar
    25    26    27   ar
    26    27    28   ar
    27    28    29    1
    28    29    30   ar
    29    30    31   ar
    30    31    32   ar
    31    32    33   ar
    32    33    34   ar
    33    21    16   ar
    34    10     1    1
    35    28    23   ar
    36    34    29   ar
    37     7     2   ar
    38    13    14    1
@<TRIPOS>MOLECULE
*****
 34 38 0 0 0
SMALL
GASTEIGER

@<TRIPOS>ATOM
      1 C         139.2207  141.8819  165.0076 C.3     1  UNL1        0.1754
      2 C         139.7324  141.8100  166.4158 C.ar    1  UNL1        0.0089
      3 C         140.4472  142.8093  167.2762 C.ar    1  UNL1       -0.0021
      4 C         140.8434  142.4458  168.6765 C.ar    1  UNL1       -0.0003
      5 C         140.5248  141.0831  169.2164 C.ar    1  UNL1        0.0001
      6 C         139.8100  140.0838  168.3560 C.ar    1  UNL1        0.0043
      7 C         139.4137  140.4473  166.9557 C.ar    1  UNL1        0.0517
      8 C         138.7052  139.6770  165.8811 C.2     1  UNL1        0.2496
      9 O         138.2039  138.2676  165.9912 O.2     1  UNL1       -0.2699
     10 N         138.5859  140.5637  164.6771 N.am    1  UNL1       -0.2620
     11 O         138.1126  143.8975  163.7994 O.2     1  UNL1       -0.2729
     12 C         139.3255  143.0645  164.0908 C.2     1  UNL1        0.2452
     13 N         140.6434  143.4142  163.4654 N.am    1  UNL1       -0.2988
     14 H         141.4395  142.8675  163.6566 H       1  UNL1        0.1498
     15 C         140.7482  144.5968  162.5486 C.3     1  UNL1        0.1165
     16 C         141.3968  144.4484  161.2043 C.ar    1  UNL1        0.0005
     17 C         142.5000  143.4509  161.0098 C.ar    1  UNL1        0.0181
     18 C         143.1485  143.3025  159.6654 C.ar    1  UNL1        0.0986
     19 N         142.6939  144.1516  158.5154 N.ar    1  UNL1       -0.2423
     20 C         141.5907  145.1492  158.7099 C.ar    1  UNL1        0.0986
     21 C         140.9421  145.2976  160.0544 C.ar    1  UNL1        0.0181
     22 C         137.9444  140.1966  163.3718 C.3     1  UNL1        0.1212
     23 C         138.6481  140.4928  162.0808 C.ar    1  UNL1       -0.0023
     24 C         137.9456  141.2651  161.0036 C.ar    1  UNL1       -0.0026
     25 C         138.6494  141.5613  159.7125 C.ar    1  UNL1       -0.0003
     26 C         140.0557  141.0853  159.4985 C.ar    1  UNL1       -0.0000
     27 C         140.7582  140.3130  160.5756 C.ar    1  UNL1       -0.0003
     28 C         140.0544  140.0168  161.8667 C.ar    1  UNL1       -0.0024
     29 C         140.7569  139.2445  162.9438 C.ar    1  UNL1       -0.0003
     30 C         141.8031  139.9133  163.7854 C.ar    1  UNL1       -0.0000
     31 C         142.5056  139.1410  164.8624 C.ar    1  UNL1       -0.0000
     32 C         142.1620  137.7000  165.0979 C.ar    1  UNL1       -0.0000
     33 C         141.1157  137.0313  164.2563 C.ar    1  UNL1       -0.0000
     34 C         140.4132  137.8036  163.1792 C.ar    1  UNL1       -0.0000
@<TRIPOS>BOND
     1    11    12    2
     2    12    13   am
     3    13    15    1
     4    15    16    1
     5    16    17   ar
     6    17    18   ar
     7    18    19   ar
     8    19    20   ar
     9    20    21   ar
    10    12     1    1
    11     1     2    1
    12     2     3   ar
    13     3     4   ar
    14     4     5   ar
    15     5     6   ar
    16     6     7   ar
    17     7     8    1
    18     8     9    2
    19     8    10   am
    20    10    22    1
    21    22    23    1
    22    23    24   ar
    23    24    25   ar
    24    25    26   ar
    25    26    27   ar
    26    27    28   ar
    27    28    29    1
    28    29    30   ar
    29    30    31   ar
    30    31    32   ar
    31    32    33   ar
    32    33    34   ar
    33    21    16   ar
    34    10     1    1
    35    28    23   ar
    36    34    29   ar
    37     7     2   ar
    38    13    14    1
@<TRIPOS>MOLECULE
*****
 34 38 0 0 0
SMALL
GASTEIGER

@<TRIPOS>ATOM
      1 C         142.8196  140.8379  164.4794 C.3     1  UNL1        0.1754
      2 C         143.1977  142.1716  163.9067 C.ar    1  UNL1        0.0089
      3 C         143.2786  142.6711  162.4946 C.ar    1  UNL1       -0.0021
      4 C         143.6967  144.0857  162.2223 C.ar    1  UNL1       -0.0003
      5 C         144.0339  145.0007  163.3620 C.ar    1  UNL1        0.0001
      6 C         143.9530  144.5013  164.7741 C.ar    1  UNL1        0.0043
      7 C         143.5350  143.0867  165.0464 C.ar    1  UNL1        0.0517
      8 C         143.3652  142.3184  166.3235 C.2     1  UNL1        0.2496
      9 O         143.5969  142.8472  167.7079 O.2     1  UNL1       -0.2699
     10 N         142.9231  140.9286  165.9731 N.am    1  UNL1       -0.2620
     11 O         141.1462  138.8981  164.0468 O.2     1  UNL1       -0.2729
     12 C         142.4099  139.6261  163.6960 C.2     1  UNL1        0.2452
     13 N         143.2639  139.1423  162.5616 N.am    1  UNL1       -0.2988
     14 H         144.0933  139.6201  162.3314 H       1  UNL1        0.1498
     15 C         142.8542  137.9305  161.7782 C.3     1  UNL1        0.1165
     16 C         142.0892  138.0888  160.4977 C.ar    1  UNL1        0.0005
     17 C         140.6587  138.5389  160.5294 C.ar    1  UNL1        0.0181
     18 C         139.8937  138.6971  159.2488 C.ar    1  UNL1        0.0986
     19 N         140.5592  138.4052  157.9366 N.ar    1  UNL1       -0.2423
     20 C         141.9897  137.9551  157.9049 C.ar    1  UNL1        0.0986
     21 C         142.7547  137.7969  159.1855 C.ar    1  UNL1        0.0181
     22 C         142.6350  139.8235  166.9456 C.3     1  UNL1        0.1212
     23 C         141.9932  140.1341  168.2653 C.ar    1  UNL1       -0.0023
     24 C         142.8095  140.0986  169.5232 C.ar    1  UNL1       -0.0026
     25 C         142.1677  140.4092  170.8428 C.ar    1  UNL1       -0.0003
     26 C         140.7095  140.7553  170.9046 C.ar    1  UNL1       -0.0000
     27 C         139.8931  140.7908  169.6468 C.ar    1  UNL1       -0.0003
     28 C         140.5349  140.4802  168.3270 C.ar    1  UNL1       -0.0024
     29 C         139.7186  140.5156  167.0692 C.ar    1  UNL1       -0.0003
     30 C         138.9053  139.3205  166.6690 C.ar    1  UNL1       -0.0000
     31 C         138.0889  139.3560  165.4111 C.ar    1  UNL1       -0.0000
     32 C         138.0858  140.5867  164.5534 C.ar    1  UNL1       -0.0000
     33 C         138.8991  141.7818  164.9537 C.ar    1  UNL1       -0.0000
     34 C         139.7155  141.7463  166.2116 C.ar    1  UNL1       -0.0000
@<TRIPOS>BOND
     1    11    12    2
     2    12    13   am
     3    13    15    1
     4    15    16    1
     5    16    17   ar
     6    17    18   ar
     7    18    19   ar
     8    19    20   ar
     9    20    21   ar
    10    12     1    1
    11     1     2    1
    12     2     3   ar
    13     3     4   ar
    14     4     5   ar
    15     5     6   ar
    16     6     7   ar
    17     7     8    1
    18     8     9    2
    19     8    10   am
    20    10    22    1
    21    22    23    1
    22    23    24   ar
    23    24    25   ar
    24    25    26   ar
    25    26    27   ar
    26    27    28   ar
    27    28    29    1
    28    29    30   ar
    29    30    31   ar
    30    31    32   ar
    31    32    33   ar
    32    33    34   ar
    33    21    16   ar
    34    10     1    1
    35    28    23   ar
    36    34    29   ar
    37     7     2   ar
    38    13    14    1
