@<TRIPOS>MOLECULE
*****
 33 36 0 0 0
SMALL
GASTEIGER

@<TRIPOS>ATOM
      1 C         142.6795  137.9910  158.3404 C.ar    1  UNL1        0.0505
      2 C         142.8596  139.3859  157.8192 C.ar    1  UNL1        0.0148
      3 C         143.3165  140.4777  158.7407 C.ar    1  UNL1        0.0060
      4 C         143.5932  140.1746  160.1834 C.ar    1  UNL1        0.0553
      5 C         143.4131  138.7797  160.7047 C.ar    1  UNL1        0.0060
      6 C         142.9562  137.6879  159.7832 C.ar    1  UNL1        0.0148
      7 C         144.0501  141.2665  161.1049 C.ar    1  UNL1        0.2512
      8 N         145.0951  141.1387  162.1734 N.ar    1  UNL1       -0.1058
      9 N         145.2331  142.4710  162.8486 N.ar    1  UNL1       -0.0923
     10 C         144.2733  143.4222  162.1974 C.ar    1  UNL1        0.3086
     11 O         143.5422  142.6778  161.1198 O.2     1  UNL1       -0.4048
     12 N         144.0788  144.8647  162.5601 N.pl3   1  UNL1       -0.2871
     13 H         144.4395  145.5717  161.9777 H       1  UNL1        0.1512
     14 C         143.3347  145.2299  163.8103 C.3     1  UNL1        0.0925
     15 C         141.8351  145.2612  163.8085 C.3     1  UNL1        0.0386
     16 C         141.0868  145.2742  162.5085 C.3     1  UNL1        0.0740
     17 N         139.9058  144.3702  162.3140 N.3     1  UNL1       -0.2684
     18 C         139.7694  143.5761  161.0488 C.3     1  UNL1        0.1046
     19 C         138.5884  142.6721  160.8542 C.3     1  UNL1        0.1595
     20 O         137.5436  142.5622  161.9248 O.3     1  UNL1       -0.3508
     21 C         137.6799  143.3563  163.1900 C.3     1  UNL1        0.1595
     22 C         138.8609  144.2603  163.3846 C.3     1  UNL1        0.1046
     23 O         144.3842  137.1865  156.0066 O.2     1  UNL1       -0.2697
     24 C         143.0750  136.4969  156.2520 C.2     1  UNL1        0.2517
     25 N         142.2226  136.8991  157.4189 N.am    1  UNL1       -0.2803
     26 H         141.3632  136.4465  157.5800 H       1  UNL1        0.1552
     27 C         142.6181  135.4050  155.3305 C.ar    1  UNL1        0.0811
     28 C         142.3259  135.7114  153.8915 C.ar    1  UNL1        0.0068
     29 C         141.8691  134.6195  152.9701 C.ar    1  UNL1        0.0003
     30 C         141.7043  133.2213  153.4877 C.ar    1  UNL1        0.0023
     31 C         141.9964  132.9150  154.9267 C.ar    1  UNL1        0.0298
     32 C         142.4533  134.0068  155.8481 C.ar    1  UNL1        0.1445
     33 F         142.7455  133.7005  157.2872 F       1  UNL1       -0.2040
@<TRIPOS>BOND
     1    23    24    2
     2    24    25   am
     3    25     1    1
     4     1     2   ar
     5     2     3   ar
     6     3     4   ar
     7     4     7    1
     8     7     8   ar
     9     8     9   ar
    10     9    10   ar
    11    10    12    1
    12    12    14    1
    13    14    15    1
    14    15    16    1
    15    16    17    1
    16    17    18    1
    17    18    19    1
    18    19    20    1
    19    20    21    1
    20    21    22    1
    21    10    11   ar
    22     4     5   ar
    23     5     6   ar
    24    24    27    1
    25    27    28   ar
    26    28    29   ar
    27    29    30   ar
    28    30    31   ar
    29    31    32   ar
    30    32    33    1
    31     6     1   ar
    32    32    27   ar
    33    11     7   ar
    34    22    17    1
    35    25    26    1
    36    12    13    1
@<TRIPOS>MOLECULE
*****
 33 36 0 0 0
SMALL
GASTEIGER

@<TRIPOS>ATOM
      1 C         139.8782  143.6365  163.8599 C.ar    1  UNL1        0.0505
      2 C         140.0561  145.1085  163.6330 C.ar    1  UNL1        0.0148
      3 C         140.3859  145.6216  162.2627 C.ar    1  UNL1        0.0060
      4 C         140.5378  144.6627  161.1192 C.ar    1  UNL1        0.0553
      5 C         140.3599  143.1907  161.3462 C.ar    1  UNL1        0.0060
      6 C         140.0301  142.6776  162.7165 C.ar    1  UNL1        0.0148
      7 C         140.8677  145.1758  159.7488 C.ar    1  UNL1        0.2512
      8 N         142.2095  145.1090  159.0817 N.ar    1  UNL1       -0.1058
      9 N         142.0848  145.7377  157.7256 N.ar    1  UNL1       -0.0923
     10 C         140.6659  146.1932  157.5546 C.ar    1  UNL1        0.3086
     11 O         139.9137  145.8459  158.8050 O.2     1  UNL1       -0.4048
     12 N         140.0987  146.8760  156.3454 N.pl3   1  UNL1       -0.2871
     13 H         140.1341  147.8572  156.2722 H       1  UNL1        0.1512
     14 C         139.4776  146.0640  155.2477 C.3     1  UNL1        0.0925
     15 C         138.9935  144.6719  155.5266 C.3     1  UNL1        0.0386
     16 C         137.5372  144.3419  155.3847 C.3     1  UNL1        0.0740
     17 N         137.0210  143.0120  155.8482 N.3     1  UNL1       -0.2684
     18 C         135.8760  142.3604  155.1309 C.3     1  UNL1        0.1046
     19 C         135.3598  141.0306  155.5943 C.3     1  UNL1        0.1595
     20 O         135.9885  140.3521  156.7751 O.3     1  UNL1       -0.3508
     21 C         137.1334  141.0036  157.4925 C.3     1  UNL1        0.1595
     22 C         137.6497  142.3335  157.0290 C.3     1  UNL1        0.1046
     23 O         142.0773  142.7641  165.7046 O.2     1  UNL1       -0.2697
     24 C         140.6479  142.6872  166.1526 C.2     1  UNL1        0.2517
     25 N         139.5483  143.1233  165.2303 N.am    1  UNL1       -0.2803
     26 H         138.6101  143.0728  165.5244 H       1  UNL1        0.1552
     27 C         140.3180  142.1740  167.5230 C.ar    1  UNL1        0.0811
     28 C         140.4092  143.0886  168.7084 C.ar    1  UNL1        0.0068
     29 C         140.0793  142.5754  170.0787 C.ar    1  UNL1        0.0003
     30 C         139.6583  141.1476  170.2636 C.ar    1  UNL1        0.0023
     31 C         139.5671  140.2330  169.0783 C.ar    1  UNL1        0.0298
     32 C         139.8969  140.7462  167.7080 C.ar    1  UNL1        0.1445
     33 F         139.8057  139.8316  166.5225 F       1  UNL1       -0.2040
@<TRIPOS>BOND
     1    23    24    2
     2    24    25   am
     3    25     1    1
     4     1     2   ar
     5     2     3   ar
     6     3     4   ar
     7     4     7    1
     8     7     8   ar
     9     8     9   ar
    10     9    10   ar
    11    10    12    1
    12    12    14    1
    13    14    15    1
    14    15    16    1
    15    16    17    1
    16    17    18    1
    17    18    19    1
    18    19    20    1
    19    20    21    1
    20    21    22    1
    21    10    11   ar
    22     4     5   ar
    23     5     6   ar
    24    24    27    1
    25    27    28   ar
    26    28    29   ar
    27    29    30   ar
    28    30    31   ar
    29    31    32   ar
    30    32    33    1
    31     6     1   ar
    32    32    27   ar
    33    11     7   ar
    34    22    17    1
    35    25    26    1
    36    12    13    1
@<TRIPOS>MOLECULE
*****
 33 36 0 0 0
SMALL
GASTEIGER

@<TRIPOS>ATOM
      1 C         140.6129  143.2264  164.4499 C.ar    1  UNL1        0.0505
      2 C         140.1060  142.4247  163.2879 C.ar    1  UNL1        0.0148
      3 C         140.4122  142.8604  161.8857 C.ar    1  UNL1        0.0060
      4 C         141.2254  144.0978  161.6454 C.ar    1  UNL1        0.0553
      5 C         141.7323  144.8994  162.8074 C.ar    1  UNL1        0.0060
      6 C         141.4261  144.4638  164.2097 C.ar    1  UNL1        0.0148
      7 C         141.5316  144.5334  160.2431 C.ar    1  UNL1        0.2512
      8 N         142.7044  144.0917  159.4188 N.ar    1  UNL1       -0.1058
      9 N         142.6164  144.7725  158.0851 N.ar    1  UNL1       -0.0923
     10 C         141.3892  145.6351  158.0851 C.ar    1  UNL1        0.3086
     11 O         140.7187  145.4873  159.4188 O.2     1  UNL1       -0.4048
     12 N         140.9156  146.4945  156.9506 N.pl3   1  UNL1       -0.2871
     13 H         141.5543  146.8067  156.2696 H       1  UNL1        0.1512
     14 C         139.4688  146.8783  156.8537 C.3     1  UNL1        0.0925
     15 C         138.8550  147.1572  155.5137 C.3     1  UNL1        0.0386
     16 C         139.5975  147.9837  154.5060 C.3     1  UNL1        0.0740
     17 N         139.6776  149.4725  154.6698 N.3     1  UNL1       -0.2684
     18 C         140.7527  150.2477  153.9674 C.3     1  UNL1        0.1046
     19 C         140.8327  151.7365  154.1311 C.3     1  UNL1        0.1595
     20 O         139.8376  152.4503  154.9972 O.3     1  UNL1       -0.3508
     21 C         138.7625  151.6753  155.6996 C.3     1  UNL1        0.1595
     22 C         138.6825  150.1864  155.5359 C.3     1  UNL1        0.1046
     23 O         142.6268  141.6307  165.9985 O.2     1  UNL1       -0.2697
     24 C         141.3137  141.9929  166.6265 C.2     1  UNL1        0.2517
     25 N         140.3067  142.7907  165.8523 N.am    1  UNL1       -0.2803
     26 H         139.4449  143.0284  166.2645 H       1  UNL1        0.1552
     27 C         141.0075  141.5572  168.0289 C.ar    1  UNL1        0.0811
     28 C         141.3262  140.1582  168.4661 C.ar    1  UNL1        0.0068
     29 C         141.0200  139.7226  169.8684 C.ar    1  UNL1        0.0003
     30 C         140.3951  140.6860  170.8334 C.ar    1  UNL1        0.0023
     31 C         140.0763  142.0850  170.3962 C.ar    1  UNL1        0.0298
     32 C         140.3825  142.5206  168.9939 C.ar    1  UNL1        0.1445
     33 F         140.0638  143.9197  168.5567 F       1  UNL1       -0.2040
@<TRIPOS>BOND
     1    23    24    2
     2    24    25   am
     3    25     1    1
     4     1     2   ar
     5     2     3   ar
     6     3     4   ar
     7     4     7    1
     8     7     8   ar
     9     8     9   ar
    10     9    10   ar
    11    10    12    1
    12    12    14    1
    13    14    15    1
    14    15    16    1
    15    16    17    1
    16    17    18    1
    17    18    19    1
    18    19    20    1
    19    20    21    1
    20    21    22    1
    21    10    11   ar
    22     4     5   ar
    23     5     6   ar
    24    24    27    1
    25    27    28   ar
    26    28    29   ar
    27    29    30   ar
    28    30    31   ar
    29    31    32   ar
    30    32    33    1
    31     6     1   ar
    32    32    27   ar
    33    11     7   ar
    34    22    17    1
    35    25    26    1
    36    12    13    1
@<TRIPOS>MOLECULE
*****
 33 36 0 0 0
SMALL
GASTEIGER

@<TRIPOS>ATOM
      1 C         139.1146  140.5415  163.3786 C.ar    1  UNL1        0.0505
      2 C         140.0723  141.1588  162.4031 C.ar    1  UNL1        0.0148
      3 C         140.1152  140.6730  160.9846 C.ar    1  UNL1        0.0060
      4 C         139.2004  139.5697  160.5417 C.ar    1  UNL1        0.0553
      5 C         138.2428  138.9524  161.5173 C.ar    1  UNL1        0.0060
      6 C         138.1999  139.4383  162.9357 C.ar    1  UNL1        0.0148
      7 C         139.2433  139.0839  159.1232 C.ar    1  UNL1        0.2512
      8 N         138.5051  139.6834  157.9632 N.ar    1  UNL1       -0.1058
      9 N         138.8375  138.8833  156.7387 N.ar    1  UNL1       -0.0923
     10 C         139.7812  137.7892  157.1420 C.ar    1  UNL1        0.3086
     11 O         140.0320  137.9132  158.6157 O.2     1  UNL1       -0.4048
     12 N         140.3705  136.7531  156.2314 N.pl3   1  UNL1       -0.2871
     13 H         139.9432  135.8700  156.1488 H       1  UNL1        0.1512
     14 C         141.6109  137.0624  155.4468 C.3     1  UNL1        0.0925
     15 C         142.9377  136.5292  155.9001 C.3     1  UNL1        0.0386
     16 C         143.0155  135.6348  157.1017 C.3     1  UNL1        0.0740
     17 N         143.1519  134.1515  156.9251 N.3     1  UNL1       -0.2684
     18 C         144.2176  133.4024  157.6688 C.3     1  UNL1        0.1046
     19 C         144.3539  131.9191  157.4921 C.3     1  UNL1        0.1595
     20 O         143.4246  131.1849  156.5717 O.3     1  UNL1       -0.3508
     21 C         142.3589  131.9340  155.8279 C.3     1  UNL1        0.1595
     22 C         142.2226  133.4173  156.0046 C.3     1  UNL1        0.1046
     23 O         140.8716  139.2722  165.4528 O.2     1  UNL1       -0.2697
     24 C         139.9502  140.3927  165.8342 C.2     1  UNL1        0.2517
     25 N         139.0717  141.0274  164.7972 N.am    1  UNL1       -0.2803
     26 H         138.4670  141.7628  165.0475 H       1  UNL1        0.1552
     27 C         139.9073  140.8786  167.2527 C.ar    1  UNL1        0.0811
     28 C         139.2948  140.0218  168.3208 C.ar    1  UNL1        0.0068
     29 C         139.2519  140.5077  169.7392 C.ar    1  UNL1        0.0003
     30 C         139.8215  141.8504  170.0896 C.ar    1  UNL1        0.0023
     31 C         140.4339  142.7072  169.0216 C.ar    1  UNL1        0.0298
     32 C         140.4768  142.2213  167.6032 C.ar    1  UNL1        0.1445
     33 F         141.0893  143.0781  166.5350 F       1  UNL1       -0.2040
@<TRIPOS>BOND
     1    23    24    2
     2    24    25   am
     3    25     1    1
     4     1     2   ar
     5     2     3   ar
     6     3     4   ar
     7     4     7    1
     8     7     8   ar
     9     8     9   ar
    10     9    10   ar
    11    10    12    1
    12    12    14    1
    13    14    15    1
    14    15    16    1
    15    16    17    1
    16    17    18    1
    17    18    19    1
    18    19    20    1
    19    20    21    1
    20    21    22    1
    21    10    11   ar
    22     4     5   ar
    23     5     6   ar
    24    24    27    1
    25    27    28   ar
    26    28    29   ar
    27    29    30   ar
    28    30    31   ar
    29    31    32   ar
    30    32    33    1
    31     6     1   ar
    32    32    27   ar
    33    11     7   ar
    34    22    17    1
    35    25    26    1
    36    12    13    1
@<TRIPOS>MOLECULE
*****
 33 36 0 0 0
SMALL
GASTEIGER

@<TRIPOS>ATOM
      1 C         140.9198  138.6025  163.6384 C.ar    1  UNL1        0.0505
      2 C         142.1870  137.9624  163.1542 C.ar    1  UNL1        0.0148
      3 C         142.4741  137.8858  161.6839 C.ar    1  UNL1        0.0060
      4 C         141.4942  138.4493  160.6980 C.ar    1  UNL1        0.0553
      5 C         140.2270  139.0894  161.1822 C.ar    1  UNL1        0.0060
      6 C         139.9398  139.1660  162.6525 C.ar    1  UNL1        0.0148
      7 C         141.7814  138.3727  159.2277 C.ar    1  UNL1        0.2512
      8 N         140.8244  138.7120  158.1235 N.ar    1  UNL1       -0.1058
      9 N         141.5275  138.4924  156.8169 N.ar    1  UNL1       -0.0923
     10 C         142.9191  138.0172  157.1135 C.ar    1  UNL1        0.3086
     11 O         143.0759  137.9433  158.6034 O.2     1  UNL1       -0.4048
     12 N         143.9694  137.6760  156.0984 N.pl3   1  UNL1       -0.2871
     13 H         144.6042  138.3651  155.7961 H       1  UNL1        0.1512
     14 C         144.0524  136.2848  155.5437 C.3     1  UNL1        0.0925
     15 C         143.7204  135.1092  156.4142 C.3     1  UNL1        0.0386
     16 C         142.3586  134.4843  156.3434 C.3     1  UNL1        0.0740
     17 N         142.2220  133.0062  156.1286 N.3     1  UNL1       -0.2684
     18 C         141.2245  132.4811  155.1390 C.3     1  UNL1        0.1046
     19 C         141.0879  131.0029  154.9241 C.3     1  UNL1        0.1595
     20 O         141.9487  130.0497  155.6989 O.3     1  UNL1       -0.3508
     21 C         142.9462  130.5747  156.6885 C.3     1  UNL1        0.1595
     22 C         143.0829  132.0530  156.9034 C.3     1  UNL1        0.1046
     23 O         142.0635  140.8412  165.2756 O.2     1  UNL1       -0.2697
     24 C         141.2044  139.7985  165.9273 C.2     1  UNL1        0.2517
     25 N         140.6326  138.6792  165.1087 N.am    1  UNL1       -0.2803
     26 H         140.0687  137.9948  165.5365 H       1  UNL1        0.1552
     27 C         140.9172  139.8751  167.3976 C.ar    1  UNL1        0.0811
     28 C         139.5653  140.3152  167.8757 C.ar    1  UNL1        0.0068
     29 C         139.2781  140.3918  169.3459 C.ar    1  UNL1        0.0003
     30 C         140.3429  140.0283  170.3380 C.ar    1  UNL1        0.0023
     31 C         141.6948  139.5883  169.8599 C.ar    1  UNL1        0.0298
     32 C         141.9819  139.5117  168.3897 C.ar    1  UNL1        0.1445
     33 F         143.3339  139.0716  167.9115 F       1  UNL1       -0.2040
@<TRIPOS>BOND
     1    23    24    2
     2    24    25   am
     3    25     1    1
     4     1     2   ar
     5     2     3   ar
     6     3     4   ar
     7     4     7    1
     8     7     8   ar
     9     8     9   ar
    10     9    10   ar
    11    10    12    1
    12    12    14    1
    13    14    15    1
    14    15    16    1
    15    16    17    1
    16    17    18    1
    17    18    19    1
    18    19    20    1
    19    20    21    1
    20    21    22    1
    21    10    11   ar
    22     4     5   ar
    23     5     6   ar
    24    24    27    1
    25    27    28   ar
    26    28    29   ar
    27    29    30   ar
    28    30    31   ar
    29    31    32   ar
    30    32    33    1
    31     6     1   ar
    32    32    27   ar
    33    11     7   ar
    34    22    17    1
    35    25    26    1
    36    12    13    1
@<TRIPOS>MOLECULE
*****
 33 36 0 0 0
SMALL
GASTEIGER

@<TRIPOS>ATOM
      1 C         139.9772  144.0506  164.3924 C.ar    1  UNL1        0.0505
      2 C         138.9306  143.7577  163.3586 C.ar    1  UNL1        0.0148
      3 C         139.1469  144.1733  161.9337 C.ar    1  UNL1        0.0060
      4 C         140.4098  144.8818  161.5425 C.ar    1  UNL1        0.0553
      5 C         141.4565  145.1747  162.5763 C.ar    1  UNL1        0.0060
      6 C         141.2402  144.7591  164.0012 C.ar    1  UNL1        0.0148
      7 C         140.6261  145.2974  160.1175 C.ar    1  UNL1        0.2512
      8 N         141.8500  145.0224  159.2949 N.ar    1  UNL1       -0.1058
      9 N         141.6368  145.6159  157.9340 N.ar    1  UNL1       -0.0923
     10 C         140.2811  146.2578  157.9154 C.ar    1  UNL1        0.3086
     11 O         139.6565  146.0609  159.2649 O.2     1  UNL1       -0.4048
     12 N         139.6593  146.9712  156.7517 N.pl3   1  UNL1       -0.2871
     13 H         139.3671  147.9066  156.8467 H       1  UNL1        0.1512
     14 C         139.4826  146.2596  155.4431 C.3     1  UNL1        0.0925
     15 C         138.2212  145.4953  155.1693 C.3     1  UNL1        0.0386
     16 C         138.2320  143.9957  155.1969 C.3     1  UNL1        0.0740
     17 N         139.0526  143.2703  156.2218 N.3     1  UNL1       -0.2684
     18 C         138.4775  142.9838  157.5773 C.3     1  UNL1        0.1046
     19 C         139.2981  142.2585  158.6021 C.3     1  UNL1        0.1595
     20 O         140.6938  141.8195  158.2716 O.3     1  UNL1       -0.3508
     21 C         141.2689  142.1059  156.9162 C.3     1  UNL1        0.1595
     22 C         140.4483  142.8313  155.8913 C.3     1  UNL1        0.1046
     23 O         141.5888  141.8065  165.5615 O.2     1  UNL1       -0.2697
     24 C         140.5668  142.5130  166.4019 C.2     1  UNL1        0.2517
     25 N         139.7610  143.6350  165.8174 N.am    1  UNL1       -0.2803
     26 H         139.0901  144.0986  166.3690 H       1  UNL1        0.1552
     27 C         140.3505  142.0974  167.8269 C.ar    1  UNL1        0.0811
     28 C         140.4409  143.1136  168.9265 C.ar    1  UNL1        0.0068
     29 C         140.2246  142.6979  170.3514 C.ar    1  UNL1        0.0003
     30 C         139.9180  141.2661  170.6768 C.ar    1  UNL1        0.0023
     31 C         139.8276  140.2499  169.5772 C.ar    1  UNL1        0.0298
     32 C         140.0438  140.6655  168.1523 C.ar    1  UNL1        0.1445
     33 F         139.9534  139.6493  167.0526 F       1  UNL1       -0.2040
@<TRIPOS>BOND
     1    23    24    2
     2    24    25   am
     3    25     1    1
     4     1     2   ar
     5     2     3   ar
     6     3     4   ar
     7     4     7    1
     8     7     8   ar
     9     8     9   ar
    10     9    10   ar
    11    10    12    1
    12    12    14    1
    13    14    15    1
    14    15    16    1
    15    16    17    1
    16    17    18    1
    17    18    19    1
    18    19    20    1
    19    20    21    1
    20    21    22    1
    21    10    11   ar
    22     4     5   ar
    23     5     6   ar
    24    24    27    1
    25    27    28   ar
    26    28    29   ar
    27    29    30   ar
    28    30    31   ar
    29    31    32   ar
    30    32    33    1
    31     6     1   ar
    32    32    27   ar
    33    11     7   ar
    34    22    17    1
    35    25    26    1
    36    12    13    1
@<TRIPOS>MOLECULE
*****
 33 36 0 0 0
SMALL
GASTEIGER

@<TRIPOS>ATOM
      1 C         142.5559  138.1687  158.1431 C.ar    1  UNL1        0.0505
      2 C         142.6433  139.6002  157.7039 C.ar    1  UNL1        0.0148
      3 C         143.1219  140.6507  158.6617 C.ar    1  UNL1        0.0060
      4 C         143.5133  140.2696  160.0587 C.ar    1  UNL1        0.0553
      5 C         143.4260  138.8380  160.4979 C.ar    1  UNL1        0.0060
      6 C         142.9473  137.7876  159.5401 C.ar    1  UNL1        0.0148
      7 C         143.9920  141.3201  161.0165 C.ar    1  UNL1        0.2512
      8 N         145.0047  141.1246  162.1056 N.ar    1  UNL1       -0.1058
      9 N         145.1806  142.4342  162.8155 N.ar    1  UNL1       -0.0923
     10 C         144.2766  143.4391  162.1651 C.ar    1  UNL1        0.3086
     11 O         143.5420  142.7505  161.0533 O.2     1  UNL1       -0.4048
     12 N         144.1325  144.8796  162.5577 N.pl3   1  UNL1       -0.2871
     13 H         144.5824  145.5803  162.0326 H       1  UNL1        0.1512
     14 C         143.3028  145.2525  163.7505 C.3     1  UNL1        0.0925
     15 C         141.8102  145.3378  163.6288 C.3     1  UNL1        0.0386
     16 C         140.9393  144.3960  164.4064 C.3     1  UNL1        0.0740
     17 N         141.3608  142.9692  164.5971 N.3     1  UNL1       -0.2684
     18 C         141.9654  142.5333  165.8989 C.3     1  UNL1        0.1046
     19 C         142.3869  141.1065  166.0896 C.3     1  UNL1        0.1595
     20 O         142.2038  140.1154  164.9786 O.3     1  UNL1       -0.3508
     21 C         141.5992  140.5513  163.6769 C.3     1  UNL1        0.1595
     22 C         141.1777  141.9782  163.4862 C.3     1  UNL1        0.1046
     23 O         144.3884  137.1467  155.9989 O.2     1  UNL1       -0.2697
     24 C         142.9935  136.6072  156.1132 C.2     1  UNL1        0.2517
     25 N         142.0773  137.1181  157.1853 N.am    1  UNL1       -0.2803
     26 H         141.1617  136.7640  157.2604 H       1  UNL1        0.1552
     27 C         142.5148  135.5566  155.1554 C.ar    1  UNL1        0.0811
     28 C         142.2212  135.9192  153.7299 C.ar    1  UNL1        0.0068
     29 C         141.7426  134.8687  152.7722 C.ar    1  UNL1        0.0003
     30 C         141.5575  133.4556  153.2400 C.ar    1  UNL1        0.0023
     31 C         141.8511  133.0930  154.6656 C.ar    1  UNL1        0.0298
     32 C         142.3297  134.1435  155.6233 C.ar    1  UNL1        0.1445
     33 F         142.6233  133.7810  157.0490 F       1  UNL1       -0.2040
@<TRIPOS>BOND
     1    23    24    2
     2    24    25   am
     3    25     1    1
     4     1     2   ar
     5     2     3   ar
     6     3     4   ar
     7     4     7    1
     8     7     8   ar
     9     8     9   ar
    10     9    10   ar
    11    10    12    1
    12    12    14    1
    13    14    15    1
    14    15    16    1
    15    16    17    1
    16    17    18    1
    17    18    19    1
    18    19    20    1
    19    20    21    1
    20    21    22    1
    21    10    11   ar
    22     4     5   ar
    23     5     6   ar
    24    24    27    1
    25    27    28   ar
    26    28    29   ar
    27    29    30   ar
    28    30    31   ar
    29    31    32   ar
    30    32    33    1
    31     6     1   ar
    32    32    27   ar
    33    11     7   ar
    34    22    17    1
    35    25    26    1
    36    12    13    1
@<TRIPOS>MOLECULE
*****
 33 36 0 0 0
SMALL
GASTEIGER

@<TRIPOS>ATOM
      1 C         144.2280  142.8463  158.8875 C.ar    1  UNL1        0.0505
      2 C         144.8486  142.5212  160.2138 C.ar    1  UNL1        0.0148
      3 C         144.0065  142.5177  161.4551 C.ar    1  UNL1        0.0060
      4 C         142.5438  142.8393  161.3701 C.ar    1  UNL1        0.0553
      5 C         141.9233  143.1645  160.0437 C.ar    1  UNL1        0.0060
      6 C         142.7654  143.1680  158.8025 C.ar    1  UNL1        0.0148
      7 C         141.7017  142.8358  162.6114 C.ar    1  UNL1        0.2512
      8 N         141.6874  143.8984  163.6701 N.ar    1  UNL1       -0.1058
      9 N         140.7029  143.4885  164.7250 N.ar    1  UNL1       -0.0923
     10 C         140.1088  142.1725  164.3183 C.ar    1  UNL1        0.3086
     11 O         140.7261  141.7692  163.0120 O.2     1  UNL1       -0.4048
     12 N         139.0784  141.3962  165.0835 N.pl3   1  UNL1       -0.2871
     13 H         138.1907  141.2349  164.6894 H       1  UNL1        0.1512
     14 C         139.4003  140.8657  166.4491 C.3     1  UNL1        0.0925
     15 C         139.1016  139.4353  166.7877 C.3     1  UNL1        0.0386
     16 C         138.4570  138.5424  165.7693 C.3     1  UNL1        0.0740
     17 N         139.1956  138.1795  164.5153 N.3     1  UNL1       -0.2684
     18 C         138.5528  138.3947  163.1772 C.3     1  UNL1        0.1046
     19 C         139.2915  138.0318  161.9232 C.3     1  UNL1        0.1595
     20 O         140.6731  137.4536  162.0072 O.3     1  UNL1       -0.3508
     21 C         141.3159  137.2384  163.3452 C.3     1  UNL1        0.1595
     22 C         140.5772  137.6014  164.5993 C.3     1  UNL1        0.1046
     23 O         144.8518  140.2657  157.4907 O.2     1  UNL1       -0.2697
     24 C         145.3820  141.5595  156.9478 C.2     1  UNL1        0.2517
     25 N         145.0701  142.8498  157.6462 N.am    1  UNL1       -0.2803
     26 H         145.4182  143.6990  157.2898 H       1  UNL1        0.1552
     27 C         146.2241  141.5630  155.7064 C.ar    1  UNL1        0.0811
     28 C         145.6566  141.0564  154.4137 C.ar    1  UNL1        0.0068
     29 C         146.4987  141.0599  153.1724 C.ar    1  UNL1        0.0003
     30 C         147.9083  141.5701  153.2239 C.ar    1  UNL1        0.0023
     31 C         148.4759  142.0767  154.5166 C.ar    1  UNL1        0.0298
     32 C         147.6337  142.0732  155.7579 C.ar    1  UNL1        0.1445
     33 F         148.2013  142.5798  157.0507 F       1  UNL1       -0.2040
@<TRIPOS>BOND
     1    23    24    2
     2    24    25   am
     3    25     1    1
     4     1     2   ar
     5     2     3   ar
     6     3     4   ar
     7     4     7    1
     8     7     8   ar
     9     8     9   ar
    10     9    10   ar
    11    10    12    1
    12    12    14    1
    13    14    15    1
    14    15    16    1
    15    16    17    1
    16    17    18    1
    17    18    19    1
    18    19    20    1
    19    20    21    1
    20    21    22    1
    21    10    11   ar
    22     4     5   ar
    23     5     6   ar
    24    24    27    1
    25    27    28   ar
    26    28    29   ar
    27    29    30   ar
    28    30    31   ar
    29    31    32   ar
    30    32    33    1
    31     6     1   ar
    32    32    27   ar
    33    11     7   ar
    34    22    17    1
    35    25    26    1
    36    12    13    1
@<TRIPOS>MOLECULE
*****
 33 36 0 0 0
SMALL
GASTEIGER

@<TRIPOS>ATOM
      1 C         140.7701  138.2708  157.3073 C.ar    1  UNL1        0.0505
      2 C         140.6172  139.5081  156.4732 C.ar    1  UNL1        0.0148
      3 C         140.5201  140.8510  157.1345 C.ar    1  UNL1        0.0060
      4 C         140.5760  140.9565  158.6297 C.ar    1  UNL1        0.0553
      5 C         140.7290  139.7192  159.4637 C.ar    1  UNL1        0.0060
      6 C         140.8261  138.3764  158.8025 C.ar    1  UNL1        0.0148
      7 C         140.4789  142.2995  159.2909 C.ar    1  UNL1        0.2512
      8 N         139.3070  143.2333  159.2225 N.ar    1  UNL1       -0.1058
      9 N         139.6404  144.4553  160.0258 N.ar    1  UNL1       -0.0923
     10 C         141.0185  144.2768  160.5908 C.ar    1  UNL1        0.3086
     11 O         141.5367  142.9444  160.1366 O.2     1  UNL1       -0.4048
     12 N         141.7499  145.2583  161.4578 N.pl3   1  UNL1       -0.2871
     13 H         141.6017  146.2245  161.3406 H       1  UNL1        0.1512
     14 C         142.7071  144.7677  162.5032 C.3     1  UNL1        0.0925
     15 C         142.3153  144.7949  163.9509 C.3     1  UNL1        0.0386
     16 C         141.4005  143.7406  164.5002 C.3     1  UNL1        0.0740
     17 N         140.0968  143.4494  163.8180 N.3     1  UNL1       -0.2684
     18 C         139.0312  144.5033  163.7552 C.3     1  UNL1        0.1046
     19 C         137.7275  144.2121  163.0731 C.3     1  UNL1        0.1595
     20 O         137.4892  142.8669  162.4537 O.3     1  UNL1       -0.3508
     21 C         138.5547  141.8130  162.5164 C.3     1  UNL1        0.1595
     22 C         139.8585  142.1042  163.1986 C.3     1  UNL1        0.1046
     23 O         143.4594  137.0579  156.7625 O.2     1  UNL1       -0.2697
     24 C         142.2118  136.3214  156.3737 C.2     1  UNL1        0.2517
     25 N         140.8672  136.9278  156.6461 N.am    1  UNL1       -0.2803
     26 H         140.0484  136.4445  156.3909 H       1  UNL1        0.1552
     27 C         142.3089  134.9785  155.7125 C.ar    1  UNL1        0.0811
     28 C         141.9582  134.8297  154.2617 C.ar    1  UNL1        0.0068
     29 C         142.0553  133.4868  153.6006 C.ar    1  UNL1        0.0003
     30 C         142.5031  132.2927  154.3903 C.ar    1  UNL1        0.0023
     31 C         142.8539  132.4415  155.8410 C.ar    1  UNL1        0.0298
     32 C         142.7568  133.7844  156.5021 C.ar    1  UNL1        0.1445
     33 F         143.1076  133.9332  157.9530 F       1  UNL1       -0.2040
@<TRIPOS>BOND
     1    23    24    2
     2    24    25   am
     3    25     1    1
     4     1     2   ar
     5     2     3   ar
     6     3     4   ar
     7     4     7    1
     8     7     8   ar
     9     8     9   ar
    10     9    10   ar
    11    10    12    1
    12    12    14    1
    13    14    15    1
    14    15    16    1
    15    16    17    1
    16    17    18    1
    17    18    19    1
    18    19    20    1
    19    20    21    1
    20    21    22    1
    21    10    11   ar
    22     4     5   ar
    23     5     6   ar
    24    24    27    1
    25    27    28   ar
    26    28    29   ar
    27    29    30   ar
    28    30    31   ar
    29    31    32   ar
    30    32    33    1
    31     6     1   ar
    32    32    27   ar
    33    11     7   ar
    34    22    17    1
    35    25    26    1
    36    12    13    1
