@<TRIPOS>MOLECULE
*****
 36 41 0 0 0
SMALL
GASTEIGER

@<TRIPOS>ATOM
      1 C         141.9438  137.0711  157.2082 C.3     1  UNL1        0.0948
      2 N         140.7432  137.6044  156.4842 N.3     1  UNL1       -0.2887
      3 C         140.1280  136.8134  155.3680 C.3     1  UNL1        0.1161
      4 C         140.7134  135.4893  154.9757 C.3     1  UNL1        0.0510
      5 C         141.9140  134.9560  155.6997 C.2     1  UNL1       -0.0044
      6 C         142.5292  135.7469  156.8159 C.2     1  UNL1        0.0689
      7 N         143.7000  134.9714  157.3430 N.2     1  UNL1       -0.2526
      8 C         143.8084  133.7012  156.5525 C.2     1  UNL1        0.0627
      9 C         144.7696  132.5521  156.6263 C.3     1  UNL1        0.0717
     10 C         144.6270  131.3934  155.6845 C.2     1  UNL1       -0.0198
     11 C         143.5232  131.3839  154.6689 C.2     1  UNL1       -0.0042
     12 C         142.5620  132.5330  154.5951 C.2     1  UNL1        0.0006
     13 C         142.7046  133.6917  155.5369 C.2     1  UNL1        0.0111
     14 H         141.0125  138.5067  156.0921 H       1  UNL1        0.1239
     15 C         144.4045  140.2350  161.6730 C.2     1  UNL1        0.4050
     16 O         144.8429  141.6498  161.4366 O.2     1  UNL1       -0.2262
     17 N         143.7893  139.4440  160.5568 N.am    1  UNL1       -0.2460
     18 C         143.3509  138.0292  160.7932 C.3     1  UNL1        0.0968
     19 C         142.7357  137.2381  159.6769 C.3     1  UNL1        0.0234
     20 C         142.5590  137.8620  158.3244 C.3     1  UNL1        0.0236
     21 C         142.9974  139.2770  158.0881 C.3     1  UNL1        0.0234
     22 C         143.6126  140.0680  159.2042 C.3     1  UNL1        0.0968
     23 C         145.1946  140.4026  164.1424 C.3     1  UNL1        0.2573
     24 O         144.5813  139.6110  163.0256 O.3     1  UNL1       -0.4304
     25 C         138.9273  137.3467  154.6439 C.ar    1  UNL1        0.1318
     26 N         137.9396  138.3373  155.1851 N.ar    1  UNL1       -0.2298
     27 C         136.9054  138.5858  154.1273 C.ar    1  UNL1        0.0996
     28 C         137.2541  137.7487  152.9325 C.ar    1  UNL1        0.0927
     29 N         138.5037  136.9829  153.2518 N.ar    1  UNL1       -0.3386
     30 H         138.9649  136.3522  152.6528 H       1  UNL1        0.1672
     31 C         135.7291  139.5093  154.2440 C.ar    1  UNL1        0.0192
     32 C         135.4976  140.5641  153.2029 C.ar    1  UNL1        0.0015
     33 C         134.3214  141.4876  153.3195 C.ar    1  UNL1        0.0000
     34 C         133.3766  141.3562  154.4771 C.ar    1  UNL1        0.0000
     35 C         133.6081  140.3013  155.5182 C.ar    1  UNL1        0.0000
     36 C         134.7844  139.3779  155.4016 C.ar    1  UNL1        0.0015
@<TRIPOS>BOND
     1    23    24    1
     2    24    15    1
     3    15    16    2
     4    15    17   am
     5    17    18    1
     6    18    19    1
     7    19    20    1
     8    20     1    1
     9     1     2    1
    10     2     3    1
    11     3    25    1
    12    25    26   ar
    13    26    27   ar
    14    27    31    1
    15    31    32   ar
    16    32    33   ar
    17    33    34   ar
    18    34    35   ar
    19    35    36   ar
    20    27    28   ar
    21    28    29   ar
    22     3     4    1
    23     4     5    1
    24     5     6    2
    25     6     7    1
    26     7     8    2
    27     8     9    1
    28     9    10    1
    29    10    11    2
    30    11    12    1
    31    12    13    2
    32    20    21    1
    33    21    22    1
    34    22    17    1
    35     6     1    1
    36    13     8    1
    37    29    25   ar
    38    13     5    1
    39    36    31   ar
    40     2    14    1
    41    29    30    1
@<TRIPOS>MOLECULE
*****
 36 41 0 0 0
SMALL
GASTEIGER

@<TRIPOS>ATOM
      1 C         142.5716  142.5816  158.1169 C.3     1  UNL1        0.0948
      2 N         142.7220  141.3256  157.3109 N.3     1  UNL1       -0.2887
      3 C         143.3976  140.1272  157.9088 C.3     1  UNL1        0.1161
      4 C         143.9228  140.1850  159.3127 C.3     1  UNL1        0.0510
      5 C         143.7724  141.4410  160.1187 C.2     1  UNL1       -0.0044
      6 C         143.0968  142.6394  159.5208 C.2     1  UNL1        0.0689
      7 N         143.0938  143.7311  160.5494 N.2     1  UNL1       -0.2526
      8 C         143.7675  143.2074  161.7831 C.2     1  UNL1        0.0627
      9 C         144.0533  143.8366  163.1144 C.3     1  UNL1        0.0717
     10 C         144.7585  143.0503  164.1795 C.2     1  UNL1       -0.0198
     11 C         145.1779  141.6350  163.9133 C.2     1  UNL1       -0.0042
     12 C         144.8921  141.0059  162.5820 C.2     1  UNL1        0.0006
     13 C         144.1869  141.7921  161.5169 C.2     1  UNL1        0.0111
     14 H         143.2496  141.5741  156.4741 H       1  UNL1        0.1239
     15 C         139.8691  147.3750  155.7251 C.2     1  UNL1        0.4050
     16 O         140.2929  147.8805  154.3780 O.2     1  UNL1       -0.2262
     17 N         140.5448  146.1767  156.3230 N.am    1  UNL1       -0.2460
     18 C         140.1210  145.6712  157.6702 C.3     1  UNL1        0.0968
     19 C         140.7966  144.4728  158.2682 C.3     1  UNL1        0.0234
     20 C         141.8959  143.7800  157.5190 C.3     1  UNL1        0.0236
     21 C         142.3197  144.2855  156.1717 C.3     1  UNL1        0.0234
     22 C         141.6442  145.4838  155.5738 C.3     1  UNL1        0.0968
     23 C         138.4810  149.5164  156.2128 C.3     1  UNL1        0.2573
     24 O         138.7698  148.0678  156.4744 O.3     1  UNL1       -0.4304
     25 C         143.5481  138.8711  157.1028 C.ar    1  UNL1        0.1318
     26 N         142.9712  137.5295  157.4453 N.ar    1  UNL1       -0.2298
     27 C         143.3684  136.5653  156.3670 C.ar    1  UNL1        0.0996
     28 C         144.1907  137.3110  155.3583 C.ar    1  UNL1        0.0927
     29 N         144.3018  138.7361  155.8130 N.ar    1  UNL1       -0.3386
     30 H         144.7846  139.4563  155.3468 H       1  UNL1        0.1672
     31 C         143.0067  135.1107  156.3080 C.ar    1  UNL1        0.0192
     32 C         141.8796  134.6531  155.4303 C.ar    1  UNL1        0.0015
     33 C         141.5179  133.1986  155.3713 C.ar    1  UNL1        0.0000
     34 C         142.2833  132.2017  156.1899 C.ar    1  UNL1        0.0000
     35 C         143.4104  132.6592  157.0675 C.ar    1  UNL1        0.0000
     36 C         143.7721  134.1137  157.1266 C.ar    1  UNL1        0.0015
@<TRIPOS>BOND
     1    23    24    1
     2    24    15    1
     3    15    16    2
     4    15    17   am
     5    17    18    1
     6    18    19    1
     7    19    20    1
     8    20     1    1
     9     1     2    1
    10     2     3    1
    11     3    25    1
    12    25    26   ar
    13    26    27   ar
    14    27    31    1
    15    31    32   ar
    16    32    33   ar
    17    33    34   ar
    18    34    35   ar
    19    35    36   ar
    20    27    28   ar
    21    28    29   ar
    22     3     4    1
    23     4     5    1
    24     5     6    2
    25     6     7    1
    26     7     8    2
    27     8     9    1
    28     9    10    1
    29    10    11    2
    30    11    12    1
    31    12    13    2
    32    20    21    1
    33    21    22    1
    34    22    17    1
    35     6     1    1
    36    13     8    1
    37    29    25   ar
    38    13     5    1
    39    36    31   ar
    40     2    14    1
    41    29    30    1
@<TRIPOS>MOLECULE
*****
 36 41 0 0 0
SMALL
GASTEIGER

@<TRIPOS>ATOM
      1 C         142.0743  141.6213  158.3621 C.3     1  UNL1        0.0948
      2 N         141.2889  142.5410  157.4748 N.3     1  UNL1       -0.2887
      3 C         140.9474  143.9244  157.9433 C.3     1  UNL1        0.1161
      4 C         141.3913  144.3881  159.2990 C.3     1  UNL1        0.0510
      5 C         142.1767  143.4684  160.1863 C.2     1  UNL1       -0.0044
      6 C         142.5182  142.0850  159.7178 C.2     1  UNL1        0.0689
      7 N         143.2988  141.4071  160.8046 N.2     1  UNL1       -0.2526
      8 C         143.4397  142.3716  161.9448 C.2     1  UNL1        0.0627
      9 C         144.1098  142.2543  163.2816 C.3     1  UNL1        0.0717
     10 C         144.0865  143.4111  164.2362 C.2     1  UNL1       -0.0198
     11 C         143.3930  144.6850  163.8540 C.2     1  UNL1       -0.0042
     12 C         142.7228  144.8023  162.5172 C.2     1  UNL1        0.0006
     13 C         142.7462  143.6455  161.5626 C.2     1  UNL1        0.0111
     14 H         140.4059  142.0721  157.2727 H       1  UNL1        0.1239
     15 C         143.4406  136.0876  156.4880 C.2     1  UNL1        0.4050
     16 O         144.2240  135.8962  155.2233 O.2     1  UNL1       -0.2262
     17 N         143.0990  137.4710  156.9565 N.am    1  UNL1       -0.2460
     18 C         142.3156  137.6625  158.2212 C.3     1  UNL1        0.0968
     19 C         141.9740  139.0460  158.6898 C.3     1  UNL1        0.0234
     20 C         142.4159  140.2378  157.8936 C.3     1  UNL1        0.0236
     21 C         143.1994  140.0463  156.6288 C.3     1  UNL1        0.0234
     22 C         143.5409  138.6630  156.1602 C.3     1  UNL1        0.0968
     23 C         143.9150  133.7189  157.4442 C.3     1  UNL1        0.2573
     24 O         142.9987  134.8956  157.2842 O.3     1  UNL1       -0.4304
     25 C         140.1619  144.8442  157.0561 C.ar    1  UNL1        0.1318
     26 N         140.3836  146.3193  156.8985 N.ar    1  UNL1       -0.2298
     27 C         139.3756  146.8371  155.9157 C.ar    1  UNL1        0.0996
     28 C         138.5310  145.6820  155.4659 C.ar    1  UNL1        0.0927
     29 N         139.0169  144.4503  156.1707 N.ar    1  UNL1       -0.3386
     30 H         138.6490  143.5427  156.0699 H       1  UNL1        0.1672
     31 C         139.2366  148.2602  155.4623 C.ar    1  UNL1        0.0192
     32 C         138.5256  149.2573  156.3286 C.ar    1  UNL1        0.0015
     33 C         138.3867  150.6803  155.8753 C.ar    1  UNL1        0.0000
     34 C         138.9587  151.1063  154.5557 C.ar    1  UNL1        0.0000
     35 C         139.6697  150.1093  153.6895 C.ar    1  UNL1        0.0000
     36 C         139.8087  148.6862  154.1428 C.ar    1  UNL1        0.0015
@<TRIPOS>BOND
     1    23    24    1
     2    24    15    1
     3    15    16    2
     4    15    17   am
     5    17    18    1
     6    18    19    1
     7    19    20    1
     8    20     1    1
     9     1     2    1
    10     2     3    1
    11     3    25    1
    12    25    26   ar
    13    26    27   ar
    14    27    31    1
    15    31    32   ar
    16    32    33   ar
    17    33    34   ar
    18    34    35   ar
    19    35    36   ar
    20    27    28   ar
    21    28    29   ar
    22     3     4    1
    23     4     5    1
    24     5     6    2
    25     6     7    1
    26     7     8    2
    27     8     9    1
    28     9    10    1
    29    10    11    2
    30    11    12    1
    31    12    13    2
    32    20    21    1
    33    21    22    1
    34    22    17    1
    35     6     1    1
    36    13     8    1
    37    29    25   ar
    38    13     5    1
    39    36    31   ar
    40     2    14    1
    41    29    30    1
@<TRIPOS>MOLECULE
*****
 36 41 0 0 0
SMALL
GASTEIGER

@<TRIPOS>ATOM
      1 C         140.2156  140.5038  157.7872 C.3     1  UNL1        0.0948
      2 N         140.2837  141.6506  156.8227 N.3     1  UNL1       -0.2887
      3 C         139.7670  143.0002  157.2247 C.3     1  UNL1        0.1161
      4 C         139.1822  143.2030  158.5911 C.3     1  UNL1        0.0510
      5 C         139.1142  142.0562  159.5555 C.2     1  UNL1       -0.0044
      6 C         139.6309  140.7066  159.1535 C.2     1  UNL1        0.0689
      7 N         139.4321  139.7712  160.3091 N.2     1  UNL1       -0.2526
      8 C         138.7925  140.5426  161.4253 C.2     1  UNL1        0.0627
      9 C         138.3637  140.1416  162.8056 C.3     1  UNL1        0.0717
     10 C         137.7383  141.1528  163.7201 C.2     1  UNL1       -0.0198
     11 C         137.5419  142.5651  163.2543 C.2     1  UNL1       -0.0042
     12 C         137.9707  142.9661  161.8740 C.2     1  UNL1        0.0006
     13 C         138.5960  141.9549  160.9595 C.2     1  UNL1        0.0111
     14 H         139.7600  141.3698  155.9938 H       1  UNL1        0.1239
     15 C         142.2824  135.1054  156.1792 C.2     1  UNL1        0.4050
     16 O         141.4334  134.1966  155.3406 O.2     1  UNL1       -0.2262
     17 N         141.7657  136.4550  156.5812 N.am    1  UNL1       -0.2460
     18 C         142.6146  137.3638  157.4198 C.3     1  UNL1        0.0968
     19 C         142.0980  138.7135  157.8218 C.3     1  UNL1        0.0234
     20 C         140.7324  139.1542  157.3852 C.3     1  UNL1        0.0236
     21 C         139.8834  138.2453  156.5465 C.3     1  UNL1        0.0234
     22 C         140.4000  136.8958  156.1445 C.3     1  UNL1        0.0968
     23 C         143.8002  133.7568  157.8002 C.3     1  UNL1        0.2573
     24 O         143.6481  134.6646  156.6158 O.3     1  UNL1       -0.4304
     25 C         139.8351  144.1472  156.2603 C.ar    1  UNL1        0.1318
     26 N         139.4697  145.5714  156.5570 N.ar    1  UNL1       -0.2298
     27 C         139.6892  146.3756  155.3100 C.ar    1  UNL1        0.0996
     28 C         140.1903  145.4484  154.2426 C.ar    1  UNL1        0.0927
     29 N         140.2804  144.0712  154.8300 N.ar    1  UNL1       -0.3386
     30 H         140.5793  143.2598  154.3593 H       1  UNL1        0.1672
     31 C         139.4498  147.8485  155.1572 C.ar    1  UNL1        0.0192
     32 C         139.9726  148.5723  153.9519 C.ar    1  UNL1        0.0015
     33 C         139.7331  150.0451  153.7991 C.ar    1  UNL1        0.0000
     34 C         138.9709  150.7942  154.8516 C.ar    1  UNL1        0.0000
     35 C         138.4480  150.0704  156.0569 C.ar    1  UNL1        0.0000
     36 C         138.6875  148.5976  156.2097 C.ar    1  UNL1        0.0015
@<TRIPOS>BOND
     1    23    24    1
     2    24    15    1
     3    15    16    2
     4    15    17   am
     5    17    18    1
     6    18    19    1
     7    19    20    1
     8    20     1    1
     9     1     2    1
    10     2     3    1
    11     3    25    1
    12    25    26   ar
    13    26    27   ar
    14    27    31    1
    15    31    32   ar
    16    32    33   ar
    17    33    34   ar
    18    34    35   ar
    19    35    36   ar
    20    27    28   ar
    21    28    29   ar
    22     3     4    1
    23     4     5    1
    24     5     6    2
    25     6     7    1
    26     7     8    2
    27     8     9    1
    28     9    10    1
    29    10    11    2
    30    11    12    1
    31    12    13    2
    32    20    21    1
    33    21    22    1
    34    22    17    1
    35     6     1    1
    36    13     8    1
    37    29    25   ar
    38    13     5    1
    39    36    31   ar
    40     2    14    1
    41    29    30    1
@<TRIPOS>MOLECULE
*****
 36 41 0 0 0
SMALL
GASTEIGER

@<TRIPOS>ATOM
      1 C         142.6425  137.1043  156.7890 C.3     1  UNL1        0.0948
      2 N         141.5861  137.3315  157.8293 N.3     1  UNL1       -0.2887
      3 C         141.4197  138.6892  158.4451 C.3     1  UNL1        0.1161
      4 C         142.3097  139.8195  158.0205 C.3     1  UNL1        0.0510
      5 C         143.3661  139.5922  156.9802 C.2     1  UNL1       -0.0044
      6 C         143.5325  138.2346  156.3645 C.2     1  UNL1        0.0689
      7 N         144.6528  138.3110  155.3699 N.2     1  UNL1       -0.2526
      8 C         145.1787  139.7158  155.3709 C.2     1  UNL1        0.0627
      9 C         146.2789  140.3762  154.5942 C.3     1  UNL1        0.0717
     10 C         146.5839  141.8285  154.8128 C.2     1  UNL1       -0.0198
     11 C         145.7887  142.6203  155.8081 C.2     1  UNL1       -0.0042
     12 C         144.6885  141.9599  156.5848 C.2     1  UNL1        0.0006
     13 C         144.3835  140.5077  156.3662 C.2     1  UNL1        0.0111
     14 H         141.7805  136.6837  158.5928 H       1  UNL1        0.1239
     15 C         143.3081  131.6739  154.3257 C.2     1  UNL1        0.4050
     16 O         142.9133  131.4450  152.8969 O.2     1  UNL1       -0.2262
     17 N         143.1417  133.0315  154.9415 N.am    1  UNL1       -0.2460
     18 C         143.5365  133.2604  156.3704 C.3     1  UNL1        0.0968
     19 C         143.3701  134.6181  156.9862 C.3     1  UNL1        0.0234
     20 C         142.8089  135.7467  156.1732 C.3     1  UNL1        0.0236
     21 C         142.4141  135.5177  154.7442 C.3     1  UNL1        0.0234
     22 C         142.5805  134.1602  154.1284 C.3     1  UNL1        0.0968
     23 C         144.7664  129.5302  154.4944 C.3     1  UNL1        0.2573
     24 O         143.8693  130.5452  155.1388 O.3     1  UNL1       -0.4304
     25 C         140.3632  138.9165  159.4854 C.ar    1  UNL1        0.1318
     26 N         140.5049  138.6600  160.9565 N.ar    1  UNL1       -0.2298
     27 C         139.2089  139.0252  161.6176 C.ar    1  UNL1        0.0996
     28 C         138.2662  139.5073  160.5551 C.ar    1  UNL1        0.0927
     29 N         138.9796  139.4401  159.2373 N.ar    1  UNL1       -0.3386
     30 H         138.6055  139.6950  158.3631 H       1  UNL1        0.1672
     31 C         138.9083  138.9256  163.0838 C.ar    1  UNL1        0.0192
     32 C         138.4410  140.1355  163.8374 C.ar    1  UNL1        0.0015
     33 C         138.1404  140.0360  165.3036 C.ar    1  UNL1        0.0000
     34 C         138.3071  138.7267  166.0162 C.ar    1  UNL1        0.0000
     35 C         138.7745  137.5168  165.2626 C.ar    1  UNL1        0.0000
     36 C         139.0750  137.6163  163.7964 C.ar    1  UNL1        0.0015
@<TRIPOS>BOND
     1    23    24    1
     2    24    15    1
     3    15    16    2
     4    15    17   am
     5    17    18    1
     6    18    19    1
     7    19    20    1
     8    20     1    1
     9     1     2    1
    10     2     3    1
    11     3    25    1
    12    25    26   ar
    13    26    27   ar
    14    27    31    1
    15    31    32   ar
    16    32    33   ar
    17    33    34   ar
    18    34    35   ar
    19    35    36   ar
    20    27    28   ar
    21    28    29   ar
    22     3     4    1
    23     4     5    1
    24     5     6    2
    25     6     7    1
    26     7     8    2
    27     8     9    1
    28     9    10    1
    29    10    11    2
    30    11    12    1
    31    12    13    2
    32    20    21    1
    33    21    22    1
    34    22    17    1
    35     6     1    1
    36    13     8    1
    37    29    25   ar
    38    13     5    1
    39    36    31   ar
    40     2    14    1
    41    29    30    1
@<TRIPOS>MOLECULE
*****
 36 41 0 0 0
SMALL
GASTEIGER

@<TRIPOS>ATOM
      1 C         142.7619  137.2811  157.2228 C.3     1  UNL1        0.0948
      2 N         142.2605  137.7368  158.5610 N.3     1  UNL1       -0.2887
      3 C         142.4664  139.1579  158.9948 C.3     1  UNL1        0.1161
      4 C         143.1736  140.1232  158.0903 C.3     1  UNL1        0.0510
      5 C         143.6750  139.6674  156.7521 C.2     1  UNL1       -0.0044
      6 C         143.4691  138.2464  156.3183 C.2     1  UNL1        0.0689
      7 N         144.0692  138.0870  154.9528 N.2     1  UNL1       -0.2526
      8 C         144.6459  139.4096  154.5427 C.2     1  UNL1        0.0627
      9 C         145.3613  139.8507  153.3003 C.3     1  UNL1        0.0717
     10 C         145.8332  141.2685  153.1700 C.2     1  UNL1       -0.0198
     11 C         145.5895  142.2453  154.2820 C.2     1  UNL1       -0.0042
     12 C         144.8741  141.8042  155.5244 C.2     1  UNL1        0.0006
     13 C         144.4022  140.3864  155.6547 C.2     1  UNL1        0.0111
     14 H         142.7112  137.1472  159.2607 H       1  UNL1        0.1239
     15 C         141.9386  131.5967  155.4878 C.2     1  UNL1        0.4050
     16 O         142.7126  130.4925  156.1446 O.2     1  UNL1       -0.2262
     17 N         142.1444  133.0178  155.9216 N.am    1  UNL1       -0.2460
     18 C         141.3703  134.1220  155.2648 C.3     1  UNL1        0.0968
     19 C         141.5762  135.5432  155.6985 C.3     1  UNL1        0.0234
     20 C         142.5560  135.8600  156.7890 C.3     1  UNL1        0.0236
     21 C         143.3301  134.7557  157.4459 C.3     1  UNL1        0.0234
     22 C         143.1244  133.3346  157.0122 C.3     1  UNL1        0.0968
     23 C         139.7293  130.4767  154.7035 C.3     1  UNL1        0.2573
     24 O         140.9586  131.2799  154.3972 O.3     1  UNL1       -0.4304
     25 C         141.9650  139.6137  160.3331 C.ar    1  UNL1        0.1318
     26 N         141.0520  138.8445  161.2412 N.ar    1  UNL1       -0.2298
     27 C         140.8113  139.6741  162.4675 C.ar    1  UNL1        0.0996
     28 C         141.5755  140.9560  162.3172 C.ar    1  UNL1        0.0927
     29 N         142.2885  140.9187  160.9981 N.ar    1  UNL1       -0.3386
     30 H         142.8673  141.6265  160.6328 H       1  UNL1        0.1672
     31 C         139.9564  139.2893  163.6385 C.ar    1  UNL1        0.0192
     32 C         139.3238  140.3524  164.4867 C.ar    1  UNL1        0.0015
     33 C         138.4690  139.9677  165.6577 C.ar    1  UNL1        0.0000
     34 C         138.2468  138.5198  165.9804 C.ar    1  UNL1        0.0000
     35 C         138.8794  137.4566  165.1322 C.ar    1  UNL1        0.0000
     36 C         139.7342  137.8414  163.9612 C.ar    1  UNL1        0.0015
@<TRIPOS>BOND
     1    23    24    1
     2    24    15    1
     3    15    16    2
     4    15    17   am
     5    17    18    1
     6    18    19    1
     7    19    20    1
     8    20     1    1
     9     1     2    1
    10     2     3    1
    11     3    25    1
    12    25    26   ar
    13    26    27   ar
    14    27    31    1
    15    31    32   ar
    16    32    33   ar
    17    33    34   ar
    18    34    35   ar
    19    35    36   ar
    20    27    28   ar
    21    28    29   ar
    22     3     4    1
    23     4     5    1
    24     5     6    2
    25     6     7    1
    26     7     8    2
    27     8     9    1
    28     9    10    1
    29    10    11    2
    30    11    12    1
    31    12    13    2
    32    20    21    1
    33    21    22    1
    34    22    17    1
    35     6     1    1
    36    13     8    1
    37    29    25   ar
    38    13     5    1
    39    36    31   ar
    40     2    14    1
    41    29    30    1
@<TRIPOS>MOLECULE
*****
 36 41 0 0 0
SMALL
GASTEIGER

@<TRIPOS>ATOM
      1 C         140.9082  139.7912  160.2984 C.3     1  UNL1        0.0948
      2 N         141.1451  138.5427  159.5014 N.3     1  UNL1       -0.2887
      3 C         141.6067  138.6382  158.0774 C.3     1  UNL1        0.1161
      4 C         141.8315  139.9822  157.4504 C.3     1  UNL1        0.0510
      5 C         141.5946  141.2307  158.2473 C.2     1  UNL1       -0.0044
      6 C         141.1330  141.1352  159.6713 C.2     1  UNL1        0.0689
      7 N         140.9837  142.5292  160.2046 N.2     1  UNL1       -0.2526
      8 C         141.3531  143.4863  159.1103 C.2     1  UNL1        0.0627
      9 C         141.3944  144.9848  159.0590 C.3     1  UNL1        0.0717
     10 C         141.8132  145.6808  157.7980 C.2     1  UNL1       -0.0198
     11 C         142.1908  144.8782  156.5883 C.2     1  UNL1       -0.0042
     12 C         142.1495  143.3797  156.6396 C.2     1  UNL1        0.0006
     13 C         141.7306  142.6837  157.9006 C.2     1  UNL1        0.0111
     14 H         140.2645  138.0281  159.4916 H       1  UNL1        0.1239
     15 C         139.0616  139.4091  165.9943 C.2     1  UNL1        0.4050
     16 O         137.6409  139.0365  166.2988 O.2     1  UNL1       -0.2262
     17 N         139.5233  139.5046  164.5703 N.am    1  UNL1       -0.2460
     18 C         140.9440  139.8772  164.2659 C.3     1  UNL1        0.0968
     19 C         141.4057  139.9727  162.8419 C.3     1  UNL1        0.0234
     20 C         140.4466  139.6957  161.7224 C.3     1  UNL1        0.0236
     21 C         139.0258  139.3231  162.0269 C.3     1  UNL1        0.0234
     22 C         138.5642  139.2276  163.4508 C.3     1  UNL1        0.0968
     23 C         140.0640  141.0461  167.7452 C.3     1  UNL1        0.2573
     24 O         140.0208  139.6861  167.1139 O.3     1  UNL1       -0.4304
     25 C         141.8436  137.3897  157.2804 C.ar    1  UNL1        0.1318
     26 N         142.7556  136.2610  157.6603 N.ar    1  UNL1       -0.2298
     27 C         142.6857  135.2245  156.5783 C.ar    1  UNL1        0.0996
     28 C         141.7306  135.7125  155.5298 C.ar    1  UNL1        0.0927
     29 N         141.2101  137.0507  155.9637 N.ar    1  UNL1       -0.3386
     30 H         140.5658  137.6086  155.4709 H       1  UNL1        0.1672
     31 C         143.4389  133.9275  156.5499 C.ar    1  UNL1        0.0192
     32 C         144.2767  133.5208  157.7258 C.ar    1  UNL1        0.0015
     33 C         145.0298  132.2240  157.6974 C.ar    1  UNL1        0.0000
     34 C         144.9451  131.3337  156.4932 C.ar    1  UNL1        0.0000
     35 C         144.1072  131.7403  155.3173 C.ar    1  UNL1        0.0000
     36 C         143.3541  133.0372  155.3457 C.ar    1  UNL1        0.0015
@<TRIPOS>BOND
     1    23    24    1
     2    24    15    1
     3    15    16    2
     4    15    17   am
     5    17    18    1
     6    18    19    1
     7    19    20    1
     8    20     1    1
     9     1     2    1
    10     2     3    1
    11     3    25    1
    12    25    26   ar
    13    26    27   ar
    14    27    31    1
    15    31    32   ar
    16    32    33   ar
    17    33    34   ar
    18    34    35   ar
    19    35    36   ar
    20    27    28   ar
    21    28    29   ar
    22     3     4    1
    23     4     5    1
    24     5     6    2
    25     6     7    1
    26     7     8    2
    27     8     9    1
    28     9    10    1
    29    10    11    2
    30    11    12    1
    31    12    13    2
    32    20    21    1
    33    21    22    1
    34    22    17    1
    35     6     1    1
    36    13     8    1
    37    29    25   ar
    38    13     5    1
    39    36    31   ar
    40     2    14    1
    41    29    30    1
@<TRIPOS>MOLECULE
*****
 36 41 0 0 0
SMALL
GASTEIGER

@<TRIPOS>ATOM
      1 C         141.3293  142.0617  158.1898 C.3     1  UNL1        0.0948
      2 N         142.4821  141.6614  157.3176 N.3     1  UNL1       -0.2887
      3 C         143.8892  141.9144  157.7715 C.3     1  UNL1        0.1161
      4 C         144.1435  142.5676  159.0977 C.3     1  UNL1        0.0510
      5 C         142.9907  142.9679  159.9699 C.2     1  UNL1       -0.0044
      6 C         141.5836  142.7150  159.5159 C.2     1  UNL1        0.0689
      7 N         140.6554  143.2153  160.5828 N.2     1  UNL1       -0.2526
      8 C         141.4888  143.7775  161.6960 C.2     1  UNL1        0.0627
      9 C         141.1200  144.4088  163.0057 C.3     1  UNL1        0.0717
     10 C         142.1945  144.8872  163.9366 C.2     1  UNL1       -0.0198
     11 C         143.6378  144.7343  163.5578 C.2     1  UNL1       -0.0042
     12 C         144.0066  144.1030  162.2481 C.2     1  UNL1        0.0006
     13 C         142.9322  143.6246  161.3172 C.2     1  UNL1        0.0111
     14 H         142.3656  142.1532  156.4316 H       1  UNL1        0.1239
     15 C         135.7008  141.0501  156.3739 C.2     1  UNL1        0.4050
     16 O         135.1324  141.8280  155.2242 O.2     1  UNL1       -0.2262
     17 N         137.1079  141.3030  156.8278 N.am    1  UNL1       -0.2460
     18 C         137.6763  140.5252  157.9775 C.3     1  UNL1        0.0968
     19 C         139.0835  140.7781  158.4315 C.3     1  UNL1        0.0234
     20 C         139.9222  141.8088  157.7358 C.3     1  UNL1        0.0236
     21 C         139.3537  142.5867  156.5861 C.3     1  UNL1        0.0234
     22 C         137.9467  142.3338  156.1321 C.3     1  UNL1        0.0968
     23 C         133.4135  139.8652  156.7121 C.3     1  UNL1        0.2573
     24 O         134.8621  140.0193  157.0697 O.3     1  UNL1       -0.4304
     25 C         145.0421  141.5141  156.8993 C.ar    1  UNL1        0.1318
     26 N         146.1209  142.4241  156.3915 N.ar    1  UNL1       -0.2298
     27 C         147.0641  141.6059  155.5601 C.ar    1  UNL1        0.0996
     28 C         146.5681  140.1903  155.5542 C.ar    1  UNL1        0.0927
     29 N         145.3184  140.1336  156.3818 N.ar    1  UNL1       -0.3386
     30 H         144.7750  139.3311  156.5550 H       1  UNL1        0.1672
     31 C         148.2883  142.1143  154.8580 C.ar    1  UNL1        0.0192
     32 C         148.1571  143.1307  153.7627 C.ar    1  UNL1        0.0015
     33 C         149.3812  143.6390  153.0606 C.ar    1  UNL1        0.0000
     34 C         150.7366  143.1309  153.4537 C.ar    1  UNL1        0.0000
     35 C         150.8679  142.1144  154.5490 C.ar    1  UNL1        0.0000
     36 C         149.6437  141.6061  155.2511 C.ar    1  UNL1        0.0015
@<TRIPOS>BOND
     1    23    24    1
     2    24    15    1
     3    15    16    2
     4    15    17   am
     5    17    18    1
     6    18    19    1
     7    19    20    1
     8    20     1    1
     9     1     2    1
    10     2     3    1
    11     3    25    1
    12    25    26   ar
    13    26    27   ar
    14    27    31    1
    15    31    32   ar
    16    32    33   ar
    17    33    34   ar
    18    34    35   ar
    19    35    36   ar
    20    27    28   ar
    21    28    29   ar
    22     3     4    1
    23     4     5    1
    24     5     6    2
    25     6     7    1
    26     7     8    2
    27     8     9    1
    28     9    10    1
    29    10    11    2
    30    11    12    1
    31    12    13    2
    32    20    21    1
    33    21    22    1
    34    22    17    1
    35     6     1    1
    36    13     8    1
    37    29    25   ar
    38    13     5    1
    39    36    31   ar
    40     2    14    1
    41    29    30    1
@<TRIPOS>MOLECULE
*****
 36 41 0 0 0
SMALL
GASTEIGER

@<TRIPOS>ATOM
      1 C         139.7939  139.0077  158.7765 C.3     1  UNL1        0.0948
      2 N         140.8646  138.0561  158.3314 N.3     1  UNL1       -0.2887
      3 C         141.0289  137.7404  156.8743 C.3     1  UNL1        0.1161
      4 C         140.1225  138.3762  155.8622 C.3     1  UNL1        0.0510
      5 C         139.0518  139.3277  156.3073 C.2     1  UNL1       -0.0044
      6 C         138.8875  139.6434  157.7645 C.2     1  UNL1        0.0689
      7 N         137.7511  140.6126  157.9034 N.2     1  UNL1       -0.2526
      8 C         137.2131  140.8958  156.5322 C.2     1  UNL1        0.0627
      9 C         136.0950  141.7742  156.0543 C.3     1  UNL1        0.0717
     10 C         135.7809  141.8585  154.5901 C.2     1  UNL1       -0.0198
     11 C         136.5848  141.0644  153.6036 C.2     1  UNL1       -0.0042
     12 C         137.7028  140.1860  154.0814 C.2     1  UNL1        0.0006
     13 C         138.0170  140.1017  155.5457 C.2     1  UNL1        0.0111
     14 H         140.6879  137.1709  158.8064 H       1  UNL1        0.1239
     15 C         139.1367  140.2707  164.6051 C.2     1  UNL1        0.4050
     16 O         140.1590  141.1121  165.3101 O.2     1  UNL1       -0.2262
     17 N         139.3011  139.9549  163.1480 N.am    1  UNL1       -0.2460
     18 C         138.2788  139.1135  162.4430 C.3     1  UNL1        0.0968
     19 C         138.4431  138.7977  160.9858 C.3     1  UNL1        0.0234
     20 C         139.6296  139.3234  160.2337 C.3     1  UNL1        0.0236
     21 C         140.6519  140.1649  160.9387 C.3     1  UNL1        0.0234
     22 C         140.4876  140.4806  162.3958 C.3     1  UNL1        0.0968
     23 C         138.1510  138.8540  166.5472 C.3     1  UNL1        0.2573
     24 O         137.9502  139.7450  165.3573 O.3     1  UNL1       -0.4304
     25 C         142.0997  136.7888  156.4291 C.ar    1  UNL1        0.1318
     26 N         141.9230  135.3223  156.1682 N.ar    1  UNL1       -0.2298
     27 C         143.2492  134.7639  155.7446 C.ar    1  UNL1        0.0996
     28 C         144.2454  135.8852  155.7437 C.ar    1  UNL1        0.0927
     29 N         143.5350  137.1368  156.1668 N.ar    1  UNL1       -0.3386
     30 H         143.9397  138.0297  156.2566 H       1  UNL1        0.1672
     31 C         143.5298  133.3349  155.3849 C.ar    1  UNL1        0.0192
     32 C         144.4934  132.5302  156.2059 C.ar    1  UNL1        0.0015
     33 C         144.7741  131.1013  155.8463 C.ar    1  UNL1        0.0000
     34 C         144.0911  130.4770  154.6658 C.ar    1  UNL1        0.0000
     35 C         143.1274  131.2816  153.8448 C.ar    1  UNL1        0.0000
     36 C         142.8468  132.7106  154.2044 C.ar    1  UNL1        0.0015
@<TRIPOS>BOND
     1    23    24    1
     2    24    15    1
     3    15    16    2
     4    15    17   am
     5    17    18    1
     6    18    19    1
     7    19    20    1
     8    20     1    1
     9     1     2    1
    10     2     3    1
    11     3    25    1
    12    25    26   ar
    13    26    27   ar
    14    27    31    1
    15    31    32   ar
    16    32    33   ar
    17    33    34   ar
    18    34    35   ar
    19    35    36   ar
    20    27    28   ar
    21    28    29   ar
    22     3     4    1
    23     4     5    1
    24     5     6    2
    25     6     7    1
    26     7     8    2
    27     8     9    1
    28     9    10    1
    29    10    11    2
    30    11    12    1
    31    12    13    2
    32    20    21    1
    33    21    22    1
    34    22    17    1
    35     6     1    1
    36    13     8    1
    37    29    25   ar
    38    13     5    1
    39    36    31   ar
    40     2    14    1
    41    29    30    1
