@<TRIPOS>MOLECULE
*****
 41 45 0 0 0
SMALL
GASTEIGER

@<TRIPOS>ATOM
      1 C         139.9799  145.7072  161.4251 C.3     1  UNL1        0.1700
      2 O         138.8879  146.7250  161.2771 O.3     1  UNL1       -0.3793
      3 H         138.4124  146.5705  160.4459 H       1  UNL1        0.2106
      4 C         140.1847  144.6673  160.3637 C.3     1  UNL1        0.2358
      5 O         139.1141  143.6525  160.0914 O.3     1  UNL1       -0.4727
      6 C         139.4953  141.2474  160.9969 C.ar    1  UNL1        0.0686
      7 C         139.2016  140.1778  162.0067 C.ar    1  UNL1        0.0059
      8 C         138.2330  140.4436  163.1207 C.ar    1  UNL1        0.0003
      9 C         137.5580  141.7791  163.2250 C.ar    1  UNL1        0.0031
     10 C         137.8517  142.8488  162.2152 C.ar    1  UNL1        0.0370
     11 C         138.8204  142.5829  161.1012 C.ar    1  UNL1        0.1413
     12 O         139.9869  140.3491  158.6092 O.2     1  UNL1       -0.2912
     13 C         140.4639  140.9816  159.8830 C.2     1  UNL1        0.1763
     14 C         141.9097  141.3482  160.0427 C.3     1  UNL1        0.0739
     15 C         142.9201  140.2893  160.3708 C.3     1  UNL1        0.0345
     16 C         143.7275  140.3879  161.6312 C.ar    1  UNL1       -0.0217
     17 C         143.5895  139.3387  162.6943 C.ar    1  UNL1       -0.0043
     18 C         144.3968  139.4373  163.9546 C.ar    1  UNL1       -0.0003
     19 C         145.3422  140.5850  164.1518 C.ar    1  UNL1       -0.0000
     20 C         145.4803  141.6342  163.0887 C.ar    1  UNL1       -0.0003
     21 C         144.6729  141.5356  161.8284 C.ar    1  UNL1       -0.0043
     22 C         140.8671  145.7295  162.6344 C.3     1  UNL1        0.1056
     23 N         140.8984  144.5522  163.5633 N.3     1  UNL1       -0.2682
     24 C         141.8758  143.4385  163.3300 C.3     1  UNL1        0.0897
     25 C         141.9071  142.2612  164.2589 C.3     1  UNL1        0.0901
     26 N         140.9611  142.1975  165.4212 N.3     1  UNL1       -0.2644
     27 C         139.9838  143.3112  165.6545 C.3     1  UNL1        0.0901
     28 C         139.9524  144.4885  164.7256 C.3     1  UNL1        0.0897
     29 C         140.9925  141.0202  166.3501 C.3     1  UNL1        0.1031
     30 C         140.2182  139.7799  166.0154 C.ar    1  UNL1       -0.0036
     31 C         138.8393  139.5833  166.5722 C.ar    1  UNL1       -0.0026
     32 C         138.0650  138.3430  166.2375 C.ar    1  UNL1       -0.0003
     33 C         138.6696  137.2992  165.3459 C.ar    1  UNL1       -0.0000
     34 C         140.0485  137.4957  164.7890 C.ar    1  UNL1       -0.0003
     35 C         140.8228  138.7361  165.1238 C.ar    1  UNL1       -0.0026
     36 C         141.7981  141.0832  167.6138 C.ar    1  UNL1       -0.0036
     37 C         142.7135  142.2452  167.8626 C.ar    1  UNL1       -0.0026
     38 C         143.5191  142.3081  169.1264 C.ar    1  UNL1       -0.0003
     39 C         143.4094  141.2091  170.1413 C.ar    1  UNL1       -0.0000
     40 C         142.4940  140.0471  169.8925 C.ar    1  UNL1       -0.0003
     41 C         141.6884  139.9841  168.6288 C.ar    1  UNL1       -0.0026
@<TRIPOS>BOND
     1    12    13    2
     2    13    14    1
     3    14    15    1
     4    15    16    1
     5    16    17   ar
     6    17    18   ar
     7    18    19   ar
     8    19    20   ar
     9    20    21   ar
    10    13     6    1
    11     6     7   ar
    12     7     8   ar
    13     8     9   ar
    14     9    10   ar
    15    10    11   ar
    16    11     5    1
    17     5     4    1
    18     4     1    1
    19     1     2    1
    20     1    22    1
    21    22    23    1
    22    23    24    1
    23    24    25    1
    24    25    26    1
    25    26    29    1
    26    29    30    1
    27    30    31   ar
    28    31    32   ar
    29    32    33   ar
    30    33    34   ar
    31    34    35   ar
    32    29    36    1
    33    36    37   ar
    34    37    38   ar
    35    38    39   ar
    36    39    40   ar
    37    40    41   ar
    38    26    27    1
    39    27    28    1
    40    21    16   ar
    41    11     6   ar
    42    28    23    1
    43    35    30   ar
    44    41    36   ar
    45     2     3    1
@<TRIPOS>MOLECULE
*****
 41 45 0 0 0
SMALL
GASTEIGER

@<TRIPOS>ATOM
      1 C         139.9791  145.7311  161.3419 C.3     1  UNL1        0.1700
      2 O         139.0065  146.8006  160.9413 O.3     1  UNL1       -0.3793
      3 H         138.6107  146.5736  160.0853 H       1  UNL1        0.2106
      4 C         140.2009  144.5465  160.4488 C.3     1  UNL1        0.2358
      5 O         139.0727  143.5996  160.1648 O.3     1  UNL1       -0.4727
      6 C         139.3062  141.1827  161.0887 C.ar    1  UNL1        0.0686
      7 C         138.9343  140.1355  162.0962 C.ar    1  UNL1        0.0059
      8 C         137.9568  140.4581  163.1873 C.ar    1  UNL1        0.0003
      9 C         137.3512  141.8279  163.2709 C.ar    1  UNL1        0.0031
     10 C         137.7232  142.8751  162.2634 C.ar    1  UNL1        0.0370
     11 C         138.7007  142.5525  161.1723 C.ar    1  UNL1        0.1413
     12 O         139.7872  140.4499  158.6430 O.2     1  UNL1       -0.2912
     13 C         140.2837  140.8601  159.9977 C.2     1  UNL1        0.1763
     14 C         141.7578  140.9477  160.2613 C.3     1  UNL1        0.0739
     15 C         142.4413  139.8791  161.0618 C.3     1  UNL1        0.0345
     16 C         143.5061  140.2489  162.0517 C.ar    1  UNL1       -0.0217
     17 C         144.3211  141.4915  161.8474 C.ar    1  UNL1       -0.0043
     18 C         145.3857  141.8612  162.8372 C.ar    1  UNL1       -0.0003
     19 C         145.6353  140.9884  164.0313 C.ar    1  UNL1       -0.0000
     20 C         144.8203  139.7458  164.2356 C.ar    1  UNL1       -0.0003
     21 C         143.7557  139.3761  163.2458 C.ar    1  UNL1       -0.0043
     22 C         140.7297  145.8462  162.6354 C.3     1  UNL1        0.1056
     23 N         140.7181  144.7087  163.6131 N.3     1  UNL1       -0.2682
     24 C         139.6379  144.6223  164.6503 C.3     1  UNL1        0.0897
     25 C         139.6262  143.4848  165.6280 C.3     1  UNL1        0.0901
     26 N         140.6948  142.4338  165.5686 N.3     1  UNL1       -0.2644
     27 C         141.7749  142.5202  164.5315 C.3     1  UNL1        0.0901
     28 C         141.7866  143.6577  163.5537 C.3     1  UNL1        0.0897
     29 C         140.6831  141.2963  166.5464 C.3     1  UNL1        0.1031
     30 C         141.3224  141.4587  167.8935 C.ar    1  UNL1       -0.0036
     31 C         141.0077  142.6614  168.7330 C.ar    1  UNL1       -0.0026
     32 C         141.6469  142.8238  170.0801 C.ar    1  UNL1       -0.0003
     33 C         142.6009  141.7836  170.5879 C.ar    1  UNL1       -0.0000
     34 C         142.9156  140.5809  169.7486 C.ar    1  UNL1       -0.0003
     35 C         142.2763  140.4185  168.4013 C.ar    1  UNL1       -0.0026
     36 C         140.0322  139.9964  166.1769 C.ar    1  UNL1       -0.0036
     37 C         140.7202  139.0544  165.2340 C.ar    1  UNL1       -0.0026
     38 C         140.0693  137.7544  164.8646 C.ar    1  UNL1       -0.0003
     39 C         138.7303  137.3965  165.4381 C.ar    1  UNL1       -0.0000
     40 C         138.0422  138.3386  166.3811 C.ar    1  UNL1       -0.0003
     41 C         138.6931  139.6385  166.7505 C.ar    1  UNL1       -0.0026
@<TRIPOS>BOND
     1    12    13    2
     2    13    14    1
     3    14    15    1
     4    15    16    1
     5    16    17   ar
     6    17    18   ar
     7    18    19   ar
     8    19    20   ar
     9    20    21   ar
    10    13     6    1
    11     6     7   ar
    12     7     8   ar
    13     8     9   ar
    14     9    10   ar
    15    10    11   ar
    16    11     5    1
    17     5     4    1
    18     4     1    1
    19     1     2    1
    20     1    22    1
    21    22    23    1
    22    23    24    1
    23    24    25    1
    24    25    26    1
    25    26    29    1
    26    29    30    1
    27    30    31   ar
    28    31    32   ar
    29    32    33   ar
    30    33    34   ar
    31    34    35   ar
    32    29    36    1
    33    36    37   ar
    34    37    38   ar
    35    38    39   ar
    36    39    40   ar
    37    40    41   ar
    38    26    27    1
    39    27    28    1
    40    21    16   ar
    41    11     6   ar
    42    28    23    1
    43    35    30   ar
    44    41    36   ar
    45     2     3    1
@<TRIPOS>MOLECULE
*****
 41 45 0 0 0
SMALL
GASTEIGER

@<TRIPOS>ATOM
      1 C         140.7012  145.1895  160.5180 C.3     1  UNL1        0.1700
      2 O         141.5331  145.9003  159.4919 O.3     1  UNL1       -0.3793
      3 H         141.4996  145.4124  158.6541 H       1  UNL1        0.2106
      4 C         139.9831  143.9235  160.1553 C.3     1  UNL1        0.2358
      5 O         140.5213  142.5992  160.6100 O.3     1  UNL1       -0.4727
      6 C         139.8534  140.0975  160.3977 C.ar    1  UNL1        0.0686
      7 C         138.9116  138.9732  160.7123 C.ar    1  UNL1        0.0059
      8 C         137.6959  139.2263  161.5537 C.ar    1  UNL1        0.0003
      9 C         137.4220  140.6038  162.0806 C.ar    1  UNL1        0.0031
     10 C         138.3638  141.7281  161.7660 C.ar    1  UNL1        0.0370
     11 C         139.5795  141.4749  160.9245 C.ar    1  UNL1        0.1413
     12 O         140.9953  139.9992  158.0661 O.2     1  UNL1       -0.2912
     13 C         141.0691  139.8443  159.5563 C.2     1  UNL1        0.1763
     14 C         142.3586  139.4364  160.2050 C.3     1  UNL1        0.0739
     15 C         142.4341  138.1571  160.9845 C.3     1  UNL1        0.0345
     16 C         142.3751  138.1873  162.4831 C.ar    1  UNL1       -0.0217
     17 C         141.4296  137.2815  163.2149 C.ar    1  UNL1       -0.0043
     18 C         141.3707  137.3117  164.7134 C.ar    1  UNL1       -0.0003
     19 C         142.2572  138.2477  165.4801 C.ar    1  UNL1       -0.0000
     20 C         143.2028  139.1535  164.7483 C.ar    1  UNL1       -0.0003
     21 C         143.2617  139.1233  163.2498 C.ar    1  UNL1       -0.0043
     22 C         140.5876  145.7446  161.9068 C.3     1  UNL1        0.1056
     23 N         140.5416  144.8164  163.0842 N.3     1  UNL1       -0.2682
     24 C         139.2758  144.6709  163.8756 C.3     1  UNL1        0.0897
     25 C         139.2298  143.7427  165.0530 C.3     1  UNL1        0.0901
     26 N         140.4497  142.9598  165.4389 N.3     1  UNL1       -0.2644
     27 C         141.7155  143.1053  164.6475 C.3     1  UNL1        0.0901
     28 C         141.7615  144.0335  163.4701 C.3     1  UNL1        0.0897
     29 C         140.4037  142.0316  166.6163 C.3     1  UNL1        0.1031
     30 C         139.5692  140.7866  166.5576 C.ar    1  UNL1       -0.0036
     31 C         139.2215  140.1785  165.2312 C.ar    1  UNL1       -0.0026
     32 C         138.3870  138.9335  165.1725 C.ar    1  UNL1       -0.0003
     33 C         137.9001  138.2965  166.4403 C.ar    1  UNL1       -0.0000
     34 C         138.2478  138.9045  167.7667 C.ar    1  UNL1       -0.0003
     35 C         139.0823  140.1496  167.8254 C.ar    1  UNL1       -0.0026
     36 C         141.1923  142.3483  167.8523 C.ar    1  UNL1       -0.0036
     37 C         140.5988  143.2223  168.9172 C.ar    1  UNL1       -0.0026
     38 C         141.3874  143.5390  170.1533 C.ar    1  UNL1       -0.0003
     39 C         142.7695  142.9818  170.3244 C.ar    1  UNL1       -0.0000
     40 C         143.3630  142.1078  169.2596 C.ar    1  UNL1       -0.0003
     41 C         142.5744  141.7911  168.0235 C.ar    1  UNL1       -0.0026
@<TRIPOS>BOND
     1    12    13    2
     2    13    14    1
     3    14    15    1
     4    15    16    1
     5    16    17   ar
     6    17    18   ar
     7    18    19   ar
     8    19    20   ar
     9    20    21   ar
    10    13     6    1
    11     6     7   ar
    12     7     8   ar
    13     8     9   ar
    14     9    10   ar
    15    10    11   ar
    16    11     5    1
    17     5     4    1
    18     4     1    1
    19     1     2    1
    20     1    22    1
    21    22    23    1
    22    23    24    1
    23    24    25    1
    24    25    26    1
    25    26    29    1
    26    29    30    1
    27    30    31   ar
    28    31    32   ar
    29    32    33   ar
    30    33    34   ar
    31    34    35   ar
    32    29    36    1
    33    36    37   ar
    34    37    38   ar
    35    38    39   ar
    36    39    40   ar
    37    40    41   ar
    38    26    27    1
    39    27    28    1
    40    21    16   ar
    41    11     6   ar
    42    28    23    1
    43    35    30   ar
    44    41    36   ar
    45     2     3    1
@<TRIPOS>MOLECULE
*****
 41 45 0 0 0
SMALL
GASTEIGER

@<TRIPOS>ATOM
      1 C         140.1394  145.9460  161.3453 C.3     1  UNL1        0.1700
      2 O         138.8674  146.7121  161.1320 O.3     1  UNL1       -0.3793
      3 H         138.5653  146.5892  160.2184 H       1  UNL1        0.2106
      4 C         140.7356  145.1539  160.2197 C.3     1  UNL1        0.2358
      5 O         141.0609  143.7025  160.4140 O.3     1  UNL1       -0.4727
      6 C         141.1990  141.4478  159.1305 C.ar    1  UNL1        0.0686
      7 C         140.5625  140.4123  158.2515 C.ar    1  UNL1        0.0059
      8 C         139.1515  140.5961  157.7768 C.ar    1  UNL1        0.0003
      9 C         138.3769  141.8154  158.1812 C.ar    1  UNL1        0.0031
     10 C         139.0134  142.8509  159.0603 C.ar    1  UNL1        0.0370
     11 C         140.4245  142.6670  159.5349 C.ar    1  UNL1        0.1413
     12 O         143.7286  142.0080  158.9380 O.2     1  UNL1       -0.2912
     13 C         142.6099  141.2640  159.6052 C.2     1  UNL1        0.1763
     14 C         142.9023  140.3363  160.7471 C.3     1  UNL1        0.0739
     15 C         142.0357  140.3573  161.9712 C.3     1  UNL1        0.0345
     16 C         140.6131  139.8882  161.8913 C.ar    1  UNL1       -0.0217
     17 C         140.3038  138.5169  161.3682 C.ar    1  UNL1       -0.0043
     18 C         138.8813  138.0479  161.2883 C.ar    1  UNL1       -0.0003
     19 C         137.7681  138.9503  161.7313 C.ar    1  UNL1       -0.0000
     20 C         138.0773  140.3217  162.2544 C.ar    1  UNL1       -0.0003
     21 C         139.4999  140.7907  162.3343 C.ar    1  UNL1       -0.0043
     22 C         140.8150  145.9721  162.6843 C.3     1  UNL1        0.1056
     23 N         140.6966  144.7956  163.6072 N.3     1  UNL1       -0.2682
     24 C         139.3621  144.4260  164.1838 C.3     1  UNL1        0.0897
     25 C         139.2437  143.2494  165.1067 C.3     1  UNL1        0.0901
     26 N         140.4598  142.4425  165.4529 N.3     1  UNL1       -0.2644
     27 C         141.7942  142.8120  164.8763 C.3     1  UNL1        0.0901
     28 C         141.9126  143.9886  163.9534 C.3     1  UNL1        0.0897
     29 C         140.3414  141.2659  166.3758 C.3     1  UNL1        0.1031
     30 C         140.2626  141.4805  167.8583 C.ar    1  UNL1       -0.0036
     31 C         140.6343  142.8103  168.4444 C.ar    1  UNL1       -0.0026
     32 C         140.5556  143.0249  169.9269 C.ar    1  UNL1       -0.0003
     33 C         140.1052  141.9097  170.8232 C.ar    1  UNL1       -0.0000
     34 C         139.7335  140.5799  170.2372 C.ar    1  UNL1       -0.0003
     35 C         139.8122  140.3653  168.7546 C.ar    1  UNL1       -0.0026
     36 C         140.3017  139.8748  165.8162 C.ar    1  UNL1       -0.0036
     37 C         141.5781  139.1770  165.4501 C.ar    1  UNL1       -0.0026
     38 C         141.5384  137.7858  164.8905 C.ar    1  UNL1       -0.0003
     39 C         140.2224  137.0925  164.6971 C.ar    1  UNL1       -0.0000
     40 C         138.9461  137.7903  165.0632 C.ar    1  UNL1       -0.0003
     41 C         138.9857  139.1814  165.6228 C.ar    1  UNL1       -0.0026
@<TRIPOS>BOND
     1    12    13    2
     2    13    14    1
     3    14    15    1
     4    15    16    1
     5    16    17   ar
     6    17    18   ar
     7    18    19   ar
     8    19    20   ar
     9    20    21   ar
    10    13     6    1
    11     6     7   ar
    12     7     8   ar
    13     8     9   ar
    14     9    10   ar
    15    10    11   ar
    16    11     5    1
    17     5     4    1
    18     4     1    1
    19     1     2    1
    20     1    22    1
    21    22    23    1
    22    23    24    1
    23    24    25    1
    24    25    26    1
    25    26    29    1
    26    29    30    1
    27    30    31   ar
    28    31    32   ar
    29    32    33   ar
    30    33    34   ar
    31    34    35   ar
    32    29    36    1
    33    36    37   ar
    34    37    38   ar
    35    38    39   ar
    36    39    40   ar
    37    40    41   ar
    38    26    27    1
    39    27    28    1
    40    21    16   ar
    41    11     6   ar
    42    28    23    1
    43    35    30   ar
    44    41    36   ar
    45     2     3    1
@<TRIPOS>MOLECULE
*****
 41 45 0 0 0
SMALL
GASTEIGER

@<TRIPOS>ATOM
      1 C         140.1426  145.9071  161.3596 C.3     1  UNL1        0.1700
      2 O         138.9189  146.7200  161.0563 O.3     1  UNL1       -0.3793
      3 H         138.6396  146.5550  160.1421 H       1  UNL1        0.2106
      4 C         140.7322  145.0174  160.3057 C.3     1  UNL1        0.2358
      5 O         142.1743  144.6124  160.3869 O.3     1  UNL1       -0.4727
      6 C         143.4479  142.4078  159.8700 C.ar    1  UNL1        0.0686
      7 C         144.0108  141.4351  158.8765 C.ar    1  UNL1        0.0059
      8 C         143.8630  141.6943  157.4065 C.ar    1  UNL1        0.0003
      9 C         143.1522  142.9263  156.9299 C.ar    1  UNL1        0.0031
     10 C         142.5893  143.8990  157.9234 C.ar    1  UNL1        0.0370
     11 C         142.7372  143.6397  159.3934 C.ar    1  UNL1        0.1413
     12 O         144.7256  142.7749  162.1021 O.2     1  UNL1       -0.2912
     13 C         143.5957  142.1485  161.3399 C.2     1  UNL1        0.1763
     14 C         142.6135  141.2628  162.0478 C.3     1  UNL1        0.0739
     15 C         141.1455  141.5615  161.9739 C.3     1  UNL1        0.0345
     16 C         140.1535  140.4378  161.9153 C.ar    1  UNL1       -0.0217
     17 C         138.7693  140.6300  162.4603 C.ar    1  UNL1       -0.0043
     18 C         137.7775  139.5064  162.4016 C.ar    1  UNL1       -0.0003
     19 C         138.1698  138.1904  161.7980 C.ar    1  UNL1       -0.0000
     20 C         139.5539  137.9981  161.2530 C.ar    1  UNL1       -0.0003
     21 C         140.5458  139.1218  161.3116 C.ar    1  UNL1       -0.0043
     22 C         140.7766  145.9840  162.7169 C.3     1  UNL1        0.1056
     23 N         140.6459  144.8346  163.6718 N.3     1  UNL1       -0.2682
     24 C         139.2872  144.3204  164.0451 C.3     1  UNL1        0.0897
     25 C         139.1566  143.1710  165.0001 C.3     1  UNL1        0.0901
     26 N         140.3846  142.5360  165.5818 N.3     1  UNL1       -0.2644
     27 C         141.7434  143.0502  165.2085 C.3     1  UNL1        0.0901
     28 C         141.8740  144.1995  164.2535 C.3     1  UNL1        0.0897
     29 C         140.2540  141.3866  166.5367 C.3     1  UNL1        0.1031
     30 C         140.0225  139.9998  166.0141 C.ar    1  UNL1       -0.0036
     31 C         138.6721  139.3616  166.1531 C.ar    1  UNL1       -0.0026
     32 C         138.4406  137.9749  165.6305 C.ar    1  UNL1       -0.0003
     33 C         139.5594  137.2262  164.9688 C.ar    1  UNL1       -0.0000
     34 C         140.9097  137.8644  164.8297 C.ar    1  UNL1       -0.0003
     35 C         141.1413  139.2512  165.3524 C.ar    1  UNL1       -0.0026
     36 C         140.3549  141.6241  168.0143 C.ar    1  UNL1       -0.0036
     37 C         140.3591  140.4615  168.9622 C.ar    1  UNL1       -0.0026
     38 C         140.4600  140.6990  170.4399 C.ar    1  UNL1       -0.0003
     39 C         140.5566  142.0990  170.9697 C.ar    1  UNL1       -0.0000
     40 C         140.5524  143.2615  170.0218 C.ar    1  UNL1       -0.0003
     41 C         140.4515  143.0241  168.5442 C.ar    1  UNL1       -0.0026
@<TRIPOS>BOND
     1    12    13    2
     2    13    14    1
     3    14    15    1
     4    15    16    1
     5    16    17   ar
     6    17    18   ar
     7    18    19   ar
     8    19    20   ar
     9    20    21   ar
    10    13     6    1
    11     6     7   ar
    12     7     8   ar
    13     8     9   ar
    14     9    10   ar
    15    10    11   ar
    16    11     5    1
    17     5     4    1
    18     4     1    1
    19     1     2    1
    20     1    22    1
    21    22    23    1
    22    23    24    1
    23    24    25    1
    24    25    26    1
    25    26    29    1
    26    29    30    1
    27    30    31   ar
    28    31    32   ar
    29    32    33   ar
    30    33    34   ar
    31    34    35   ar
    32    29    36    1
    33    36    37   ar
    34    37    38   ar
    35    38    39   ar
    36    39    40   ar
    37    40    41   ar
    38    26    27    1
    39    27    28    1
    40    21    16   ar
    41    11     6   ar
    42    28    23    1
    43    35    30   ar
    44    41    36   ar
    45     2     3    1
@<TRIPOS>MOLECULE
*****
 41 45 0 0 0
SMALL
GASTEIGER

@<TRIPOS>ATOM
      1 C         139.9345  145.9281  161.2952 C.3     1  UNL1        0.1700
      2 O         138.8712  146.9148  160.9130 O.3     1  UNL1       -0.3793
      3 H         138.5583  146.7214  160.0155 H       1  UNL1        0.2106
      4 C         140.3471  144.8580  160.3285 C.3     1  UNL1        0.2358
      5 O         140.0844  143.4162  160.6487 O.3     1  UNL1       -0.4727
      6 C         141.0199  141.5371  159.1178 C.ar    1  UNL1        0.0686
      7 C         140.8229  140.5464  158.0088 C.ar    1  UNL1        0.0059
      8 C         139.4934  140.4442  157.3219 C.ar    1  UNL1        0.0003
      9 C         138.3608  141.3326  157.7439 C.ar    1  UNL1        0.0031
     10 C         138.5578  142.3233  158.8529 C.ar    1  UNL1        0.0370
     11 C         139.8874  142.4255  159.5398 C.ar    1  UNL1        0.1413
     12 O         143.3010  142.7390  159.4368 O.2     1  UNL1       -0.2912
     13 C         142.3494  141.6394  159.8047 C.2     1  UNL1        0.1763
     14 C         142.7274  140.6421  160.8595 C.3     1  UNL1        0.0739
     15 C         141.8696  140.4789  162.0791 C.3     1  UNL1        0.0345
     16 C         140.4943  139.8927  161.9559 C.ar    1  UNL1       -0.0217
     17 C         139.3030  140.6674  162.4360 C.ar    1  UNL1       -0.0043
     18 C         137.9279  140.0812  162.3127 C.ar    1  UNL1       -0.0003
     19 C         137.7440  138.7203  161.7093 C.ar    1  UNL1       -0.0000
     20 C         138.9353  137.9456  161.2292 C.ar    1  UNL1       -0.0003
     21 C         140.3105  138.5318  161.3525 C.ar    1  UNL1       -0.0043
     22 C         140.5851  146.0117  162.6442 C.3     1  UNL1        0.1056
     23 N         140.5105  144.8468  163.5863 N.3     1  UNL1       -0.2682
     24 C         139.1904  144.4366  164.1685 C.3     1  UNL1        0.0897
     25 C         139.1157  143.2717  165.1106 C.3     1  UNL1        0.0901
     26 N         140.3611  142.5172  165.4706 N.3     1  UNL1       -0.2644
     27 C         141.6812  142.9275  164.8884 C.3     1  UNL1        0.0901
     28 C         141.7559  144.0923  163.9462 C.3     1  UNL1        0.0897
     29 C         140.2864  141.3524  166.4127 C.3     1  UNL1        0.1031
     30 C         140.2147  139.9547  165.8731 C.ar    1  UNL1       -0.0036
     31 C         141.4708  139.2414  165.4689 C.ar    1  UNL1       -0.0026
     32 C         141.3991  137.8437  164.9292 C.ar    1  UNL1       -0.0003
     33 C         140.0712  137.1592  164.7938 C.ar    1  UNL1       -0.0000
     34 C         138.8151  137.8725  165.1979 C.ar    1  UNL1       -0.0003
     35 C         138.8868  139.2703  165.7376 C.ar    1  UNL1       -0.0026
     36 C         140.2835  141.5853  167.8945 C.ar    1  UNL1       -0.0036
     37 C         140.5403  142.9594  168.4383 C.ar    1  UNL1       -0.0026
     38 C         140.5374  143.1923  169.9201 C.ar    1  UNL1       -0.0003
     39 C         140.2777  142.0510  170.8581 C.ar    1  UNL1       -0.0000
     40 C         140.0209  140.6768  170.3144 C.ar    1  UNL1       -0.0003
     41 C         140.0238  140.4439  168.8326 C.ar    1  UNL1       -0.0026
@<TRIPOS>BOND
     1    12    13    2
     2    13    14    1
     3    14    15    1
     4    15    16    1
     5    16    17   ar
     6    17    18   ar
     7    18    19   ar
     8    19    20   ar
     9    20    21   ar
    10    13     6    1
    11     6     7   ar
    12     7     8   ar
    13     8     9   ar
    14     9    10   ar
    15    10    11   ar
    16    11     5    1
    17     5     4    1
    18     4     1    1
    19     1     2    1
    20     1    22    1
    21    22    23    1
    22    23    24    1
    23    24    25    1
    24    25    26    1
    25    26    29    1
    26    29    30    1
    27    30    31   ar
    28    31    32   ar
    29    32    33   ar
    30    33    34   ar
    31    34    35   ar
    32    29    36    1
    33    36    37   ar
    34    37    38   ar
    35    38    39   ar
    36    39    40   ar
    37    40    41   ar
    38    26    27    1
    39    27    28    1
    40    21    16   ar
    41    11     6   ar
    42    28    23    1
    43    35    30   ar
    44    41    36   ar
    45     2     3    1
@<TRIPOS>MOLECULE
*****
 41 45 0 0 0
SMALL
GASTEIGER

@<TRIPOS>ATOM
      1 C         140.7745  145.2189  160.4778 C.3     1  UNL1        0.1700
      2 O         141.7687  146.0020  159.6724 O.3     1  UNL1       -0.3793
      3 H         141.7930  145.6581  158.7658 H       1  UNL1        0.2106
      4 C         140.0076  144.0991  159.8391 C.3     1  UNL1        0.2358
      5 O         140.7087  142.8260  159.4679 O.3     1  UNL1       -0.4727
      6 C         141.0740  140.2766  159.8098 C.ar    1  UNL1        0.0686
      7 C         140.7338  138.9990  160.5183 C.ar    1  UNL1        0.0059
      8 C         139.6879  138.9932  161.5935 C.ar    1  UNL1        0.0003
      9 C         138.9822  140.2651  161.9602 C.ar    1  UNL1        0.0031
     10 C         139.3225  141.5427  161.2517 C.ar    1  UNL1        0.0370
     11 C         140.3684  141.5484  160.1764 C.ar    1  UNL1        0.1413
     12 O         141.7117  140.2969  157.2913 O.2     1  UNL1       -0.2912
     13 C         142.1199  140.2823  158.7346 C.2     1  UNL1        0.1763
     14 C         143.5741  140.2735  159.1027 C.3     1  UNL1        0.0739
     15 C         144.1347  141.3608  159.9706 C.3     1  UNL1        0.0345
     16 C         144.4495  141.0836  161.4108 C.ar    1  UNL1       -0.0217
     17 C         145.0260  142.1661  162.2743 C.ar    1  UNL1       -0.0043
     18 C         145.3409  141.8889  163.7144 C.ar    1  UNL1       -0.0003
     19 C         145.0792  140.5291  164.2910 C.ar    1  UNL1       -0.0000
     20 C         144.5027  139.4465  163.4275 C.ar    1  UNL1       -0.0003
     21 C         144.1879  139.7238  161.9874 C.ar    1  UNL1       -0.0043
     22 C         140.5473  145.5556  161.9217 C.3     1  UNL1        0.1056
     23 N         140.4624  144.4602  162.9429 N.3     1  UNL1       -0.2682
     24 C         141.6527  143.5863  163.2061 C.3     1  UNL1        0.0897
     25 C         141.5677  142.4909  164.2273 C.3     1  UNL1        0.0901
     26 N         140.2924  142.2694  164.9853 N.3     1  UNL1       -0.2644
     27 C         139.1021  143.1433  164.7221 C.3     1  UNL1        0.0901
     28 C         139.1871  144.2387  163.7009 C.3     1  UNL1        0.0897
     29 C         140.2075  141.1740  166.0065 C.3     1  UNL1        0.1031
     30 C         140.1159  141.5135  167.4647 C.ar    1  UNL1       -0.0036
     31 C         140.5221  142.8754  167.9446 C.ar    1  UNL1       -0.0026
     32 C         140.4306  143.2149  169.4028 C.ar    1  UNL1       -0.0003
     33 C         139.9329  142.1925  170.3811 C.ar    1  UNL1       -0.0000
     34 C         139.5267  140.8306  169.9012 C.ar    1  UNL1       -0.0003
     35 C         139.6183  140.4911  168.4430 C.ar    1  UNL1       -0.0026
     36 C         140.2140  139.7391  165.5695 C.ar    1  UNL1       -0.0036
     37 C         138.9194  139.0007  165.4001 C.ar    1  UNL1       -0.0026
     38 C         138.9260  137.5657  164.9631 C.ar    1  UNL1       -0.0003
     39 C         140.2272  136.8692  164.6956 C.ar    1  UNL1       -0.0000
     40 C         141.5219  137.6076  164.8650 C.ar    1  UNL1       -0.0003
     41 C         141.5153  139.0425  165.3020 C.ar    1  UNL1       -0.0026
@<TRIPOS>BOND
     1    12    13    2
     2    13    14    1
     3    14    15    1
     4    15    16    1
     5    16    17   ar
     6    17    18   ar
     7    18    19   ar
     8    19    20   ar
     9    20    21   ar
    10    13     6    1
    11     6     7   ar
    12     7     8   ar
    13     8     9   ar
    14     9    10   ar
    15    10    11   ar
    16    11     5    1
    17     5     4    1
    18     4     1    1
    19     1     2    1
    20     1    22    1
    21    22    23    1
    22    23    24    1
    23    24    25    1
    24    25    26    1
    25    26    29    1
    26    29    30    1
    27    30    31   ar
    28    31    32   ar
    29    32    33   ar
    30    33    34   ar
    31    34    35   ar
    32    29    36    1
    33    36    37   ar
    34    37    38   ar
    35    38    39   ar
    36    39    40   ar
    37    40    41   ar
    38    26    27    1
    39    27    28    1
    40    21    16   ar
    41    11     6   ar
    42    28    23    1
    43    35    30   ar
    44    41    36   ar
    45     2     3    1
@<TRIPOS>MOLECULE
*****
 41 45 0 0 0
SMALL
GASTEIGER

@<TRIPOS>ATOM
      1 C         138.1213  138.3071  166.8302 C.3     1  UNL1        0.1700
      2 O         136.8220  138.0580  167.5373 O.3     1  UNL1       -0.3793
      3 H         136.6849  138.7411  168.2121 H       1  UNL1        0.2106
      4 C         138.9740  139.4784  167.2188 C.3     1  UNL1        0.2358
      5 O         139.6058  139.5278  168.5784 O.3     1  UNL1       -0.4727
      6 C         141.9445  140.5944  168.9563 C.ar    1  UNL1        0.0686
      7 C         142.7874  141.7713  169.3492 C.ar    1  UNL1        0.0059
      8 C         142.1345  143.0586  169.7572 C.ar    1  UNL1        0.0003
      9 C         140.6386  143.1690  169.7724 C.ar    1  UNL1        0.0031
     10 C         139.7957  141.9921  169.3794 C.ar    1  UNL1        0.0370
     11 C         140.4487  140.7047  168.9714 C.ar    1  UNL1        0.1413
     12 O         143.0507  138.3317  169.5937 O.2     1  UNL1       -0.2912
     13 C         142.5974  139.3071  168.5482 C.2     1  UNL1        0.1763
     14 C         142.7971  138.9952  167.0946 C.3     1  UNL1        0.0739
     15 C         142.4059  139.9995  166.0514 C.3     1  UNL1        0.0345
     16 C         143.4633  140.7771  165.3251 C.ar    1  UNL1       -0.0217
     17 C         144.3111  140.1022  164.2879 C.ar    1  UNL1       -0.0043
     18 C         145.3683  140.8798  163.5617 C.ar    1  UNL1       -0.0003
     19 C         145.5778  142.3322  163.8726 C.ar    1  UNL1       -0.0000
     20 C         144.7300  143.0070  164.9098 C.ar    1  UNL1       -0.0003
     21 C         143.6727  142.2295  165.6360 C.ar    1  UNL1       -0.0043
     22 C         138.5677  137.3850  165.7346 C.3     1  UNL1        0.1056
     23 N         139.2905  137.9340  164.5404 N.3     1  UNL1       -0.2682
     24 C         140.6901  137.4861  164.2396 C.3     1  UNL1        0.0897
     25 C         141.4129  138.0350  163.0453 C.3     1  UNL1        0.0901
     26 N         140.7361  139.0318  162.1518 N.3     1  UNL1       -0.2644
     27 C         139.3365  139.4797  162.4526 C.3     1  UNL1        0.0901
     28 C         138.6138  138.9307  163.6469 C.3     1  UNL1        0.0897
     29 C         141.4589  139.5807  160.9576 C.3     1  UNL1        0.1031
     30 C         141.4448  138.8272  159.6607 C.ar    1  UNL1       -0.0036
     31 C         142.6631  138.0716  159.2190 C.ar    1  UNL1       -0.0026
     32 C         142.6489  137.3181  157.9221 C.ar    1  UNL1       -0.0003
     33 C         141.4166  137.3201  157.0669 C.ar    1  UNL1       -0.0000
     34 C         140.1984  138.0756  157.5085 C.ar    1  UNL1       -0.0003
     35 C         140.2125  138.8292  158.8055 C.ar    1  UNL1       -0.0026
     36 C         142.1958  140.8831  161.0602 C.ar    1  UNL1       -0.0036
     37 C         141.6906  141.9608  161.9730 C.ar    1  UNL1       -0.0026
     38 C         142.4276  143.2633  162.0756 C.ar    1  UNL1       -0.0003
     39 C         143.6697  143.4880  161.2654 C.ar    1  UNL1       -0.0000
     40 C         144.1750  142.4103  160.3526 C.ar    1  UNL1       -0.0003
     41 C         143.4381  141.1079  160.2500 C.ar    1  UNL1       -0.0026
@<TRIPOS>BOND
     1    12    13    2
     2    13    14    1
     3    14    15    1
     4    15    16    1
     5    16    17   ar
     6    17    18   ar
     7    18    19   ar
     8    19    20   ar
     9    20    21   ar
    10    13     6    1
    11     6     7   ar
    12     7     8   ar
    13     8     9   ar
    14     9    10   ar
    15    10    11   ar
    16    11     5    1
    17     5     4    1
    18     4     1    1
    19     1     2    1
    20     1    22    1
    21    22    23    1
    22    23    24    1
    23    24    25    1
    24    25    26    1
    25    26    29    1
    26    29    30    1
    27    30    31   ar
    28    31    32   ar
    29    32    33   ar
    30    33    34   ar
    31    34    35   ar
    32    29    36    1
    33    36    37   ar
    34    37    38   ar
    35    38    39   ar
    36    39    40   ar
    37    40    41   ar
    38    26    27    1
    39    27    28    1
    40    21    16   ar
    41    11     6   ar
    42    28    23    1
    43    35    30   ar
    44    41    36   ar
    45     2     3    1
@<TRIPOS>MOLECULE
*****
 41 45 0 0 0
SMALL
GASTEIGER

@<TRIPOS>ATOM
      1 C         138.0802  138.2816  166.7731 C.3     1  UNL1        0.1700
      2 O         136.8320  138.0371  167.5683 O.3     1  UNL1       -0.3793
      3 H         136.7392  138.7263  168.2445 H       1  UNL1        0.2106
      4 C         138.9547  139.4576  167.0926 C.3     1  UNL1        0.2358
      5 O         139.7583  139.4725  168.3592 O.3     1  UNL1       -0.4727
      6 C         141.7071  141.1840  168.5105 C.ar    1  UNL1        0.0686
      7 C         142.2637  142.4762  169.0304 C.ar    1  UNL1        0.0059
      8 C         141.4281  143.3492  169.9189 C.ar    1  UNL1        0.0003
      9 C         140.0358  142.9300  170.2876 C.ar    1  UNL1        0.0031
     10 C         139.4792  141.6378  169.7677 C.ar    1  UNL1        0.0370
     11 C         140.3149  140.7647  168.8791 C.ar    1  UNL1        0.1413
     12 O         143.0790  139.0091  168.1392 O.2     1  UNL1       -0.2912
     13 C         142.5427  140.3110  167.6219 C.2     1  UNL1        0.1763
     14 C         142.8421  140.7398  166.2160 C.3     1  UNL1        0.0739
     15 C         141.7304  140.8628  165.2166 C.3     1  UNL1        0.0345
     16 C         141.1177  142.2032  164.9374 C.ar    1  UNL1       -0.0217
     17 C         141.7201  143.1015  163.8981 C.ar    1  UNL1       -0.0043
     18 C         141.1073  144.4418  163.6190 C.ar    1  UNL1       -0.0003
     19 C         139.8922  144.8839  164.3793 C.ar    1  UNL1       -0.0000
     20 C         139.2898  143.9857  165.4186 C.ar    1  UNL1       -0.0003
     21 C         139.9025  142.6453  165.6976 C.ar    1  UNL1       -0.0043
     22 C         138.4538  137.3500  165.6584 C.3     1  UNL1        0.1056
     23 N         139.2829  137.8472  164.5115 N.3     1  UNL1       -0.2682
     24 C         140.6192  137.2278  164.2281 C.3     1  UNL1        0.0897
     25 C         141.4483  137.7250  163.0812 C.3     1  UNL1        0.0901
     26 N         140.9410  138.8417  162.2177 N.3     1  UNL1       -0.2644
     27 C         139.6046  139.4611  162.5011 C.3     1  UNL1        0.0901
     28 C         138.7756  138.9639  163.6480 C.3     1  UNL1        0.0897
     29 C         141.7701  139.3389  161.0708 C.3     1  UNL1        0.1031
     30 C         141.6164  138.7230  159.7117 C.ar    1  UNL1       -0.0036
     31 C         140.2927  138.7790  159.0082 C.ar    1  UNL1       -0.0026
     32 C         140.1390  138.1631  157.6492 C.ar    1  UNL1       -0.0003
     33 C         141.3090  137.4911  156.9936 C.ar    1  UNL1       -0.0000
     34 C         142.6326  137.4351  157.6971 C.ar    1  UNL1       -0.0003
     35 C         142.7863  138.0511  159.0561 C.ar    1  UNL1       -0.0026
     36 C         142.7529  140.4520  161.2829 C.ar    1  UNL1       -0.0036
     37 C         142.5758  141.7561  160.5632 C.ar    1  UNL1       -0.0026
     38 C         143.5587  142.8693  160.7753 C.ar    1  UNL1       -0.0003
     39 C         144.7185  142.6784  161.7071 C.ar    1  UNL1       -0.0000
     40 C         144.8955  141.3743  162.4268 C.ar    1  UNL1       -0.0003
     41 C         143.9128  140.2611  162.2147 C.ar    1  UNL1       -0.0026
@<TRIPOS>BOND
     1    12    13    2
     2    13    14    1
     3    14    15    1
     4    15    16    1
     5    16    17   ar
     6    17    18   ar
     7    18    19   ar
     8    19    20   ar
     9    20    21   ar
    10    13     6    1
    11     6     7   ar
    12     7     8   ar
    13     8     9   ar
    14     9    10   ar
    15    10    11   ar
    16    11     5    1
    17     5     4    1
    18     4     1    1
    19     1     2    1
    20     1    22    1
    21    22    23    1
    22    23    24    1
    23    24    25    1
    24    25    26    1
    25    26    29    1
    26    29    30    1
    27    30    31   ar
    28    31    32   ar
    29    32    33   ar
    30    33    34   ar
    31    34    35   ar
    32    29    36    1
    33    36    37   ar
    34    37    38   ar
    35    38    39   ar
    36    39    40   ar
    37    40    41   ar
    38    26    27    1
    39    27    28    1
    40    21    16   ar
    41    11     6   ar
    42    28    23    1
    43    35    30   ar
    44    41    36   ar
    45     2     3    1
