@<TRIPOS>MOLECULE
*****
 28 31 0 0 0
SMALL
GASTEIGER

@<TRIPOS>ATOM
      1 C         140.8005  139.4208  165.1509 C.ar    1  UNL1        0.0191
      2 C         141.1986  137.9933  164.9190 C.ar    1  UNL1        0.0023
      3 C         141.2051  137.4331  163.5276 C.ar    1  UNL1        0.0367
      4 C         140.8137  138.3005  162.3681 C.ar    1  UNL1        0.1385
      5 C         140.4157  139.7279  162.5999 C.ar    1  UNL1        0.0367
      6 C         140.4091  140.2881  163.9914 C.ar    1  UNL1        0.0023
      7 C         138.4579  138.9223  166.9575 C.3     1  UNL1        0.0300
      8 C         139.6226  139.7318  167.4457 C.3     1  UNL1        0.1779
      9 C         140.7939  139.9810  166.5424 C.3     1  UNL1        0.2102
     10 O         141.9586  140.7905  167.0305 O.3     1  UNL1       -0.4717
     11 C         141.9520  141.3507  168.4220 C.ar    1  UNL1        0.1559
     12 C         143.1166  142.1602  168.9101 C.ar    1  UNL1        0.0382
     13 C         143.1100  142.7204  170.3016 C.ar    1  UNL1        0.0032
     14 C         141.9387  142.4711  171.2048 C.ar    1  UNL1        0.0015
     15 C         140.7740  141.6617  170.7167 C.ar    1  UNL1        0.0214
     16 C         140.7807  141.1015  169.3253 C.ar    1  UNL1        0.1395
     17 S         139.6160  140.2920  168.8371 S.O2    1  UNL1        0.0137
     18 O         139.1485  140.6093  170.2266 O.2     1  UNL1       -0.1685
     19 O         138.2889  139.5927  168.8315 O.2     1  UNL1       -0.1685
     20 O         140.8203  137.7402  160.9766 O.3     1  UNL1       -0.4754
     21 C         141.9355  138.0849  160.0346 C.3     1  UNL1        0.2068
     22 C         143.3477  138.1499  160.5361 C.3     1  UNL1        0.0646
     23 C         143.9889  139.4797  160.8014 C.3     1  UNL1        0.0759
     24 N         144.0674  140.0082  162.2030 N.3     1  UNL1       -0.2726
     25 C         143.7889  141.4188  162.6304 C.3     1  UNL1        0.0721
     26 C         143.9876  141.5012  164.1149 C.3     1  UNL1        0.0188
     27 C         144.3889  140.1415  164.6050 C.3     1  UNL1        0.0188
     28 C         144.4383  139.2188  163.4234 C.3     1  UNL1        0.0721
@<TRIPOS>BOND
     1     8     7    1
     2     8     9    1
     3     9     1    1
     4     1     2   ar
     5     2     3   ar
     6     3     4   ar
     7     4    20    1
     8    20    21    1
     9    21    22    1
    10    22    23    1
    11    23    24    1
    12    24    25    1
    13    25    26    1
    14    26    27    1
    15    27    28    1
    16     4     5   ar
    17     5     6   ar
    18     9    10    1
    19    10    11    1
    20    11    12   ar
    21    12    13   ar
    22    13    14   ar
    23    14    15   ar
    24    15    16   ar
    25    16    17    1
    26    17    18    2
    27    17    19    2
    28    17     8    1
    29     6     1   ar
    30    16    11   ar
    31    28    24    1
@<TRIPOS>MOLECULE
*****
 28 31 0 0 0
SMALL
GASTEIGER

@<TRIPOS>ATOM
      1 C         139.6991  141.8660  164.3412 C.ar    1  UNL1        0.0191
      2 C         138.5897  142.8586  164.1569 C.ar    1  UNL1        0.0023
      3 C         138.1235  143.2145  162.7764 C.ar    1  UNL1        0.0367
      4 C         138.7665  142.5777  161.5801 C.ar    1  UNL1        0.1385
      5 C         139.8758  141.5850  161.7644 C.ar    1  UNL1        0.0367
      6 C         140.3421  141.2292  163.1450 C.ar    1  UNL1        0.0023
      7 C         138.1688  139.8667  165.9725 C.3     1  UNL1        0.0300
      8 C         139.4003  140.5104  166.5374 C.3     1  UNL1        0.1779
      9 C         140.1654  141.5101  165.7218 C.3     1  UNL1        0.2102
     10 O         141.3968  142.1538  166.2867 O.3     1  UNL1       -0.4717
     11 C         141.8632  141.7980  167.6673 C.ar    1  UNL1        0.1559
     12 C         143.0946  142.4417  168.2321 C.ar    1  UNL1        0.0382
     13 C         143.5609  142.0858  169.6127 C.ar    1  UNL1        0.0032
     14 C         142.7957  141.0862  170.4283 C.ar    1  UNL1        0.0015
     15 C         141.5643  140.4424  169.8634 C.ar    1  UNL1        0.0214
     16 C         141.0980  140.7983  168.4829 C.ar    1  UNL1        0.1395
     17 S         139.8665  140.1545  167.9179 S.O2    1  UNL1        0.0137
     18 O         139.9105  139.4956  169.2648 O.2     1  UNL1       -0.1685
     19 O         138.6503  139.2819  167.8208 O.2     1  UNL1       -0.1685
     20 O         138.3001  142.9335  160.1995 O.3     1  UNL1       -0.4754
     21 C         139.3004  143.2688  159.1332 C.3     1  UNL1        0.2068
     22 C         140.0686  144.5552  159.2034 C.3     1  UNL1        0.0646
     23 C         141.4649  144.5660  159.7515 C.3     1  UNL1        0.0759
     24 N         141.6886  144.6363  161.2330 N.3     1  UNL1       -0.2726
     25 C         142.7572  143.9139  161.9986 C.3     1  UNL1        0.0721
     26 C         142.6120  144.2725  163.4479 C.3     1  UNL1        0.0188
     27 C         141.4535  145.2166  163.5779 C.3     1  UNL1        0.0188
     28 C         140.8829  145.4414  162.2090 C.3     1  UNL1        0.0721
@<TRIPOS>BOND
     1     8     7    1
     2     8     9    1
     3     9     1    1
     4     1     2   ar
     5     2     3   ar
     6     3     4   ar
     7     4    20    1
     8    20    21    1
     9    21    22    1
    10    22    23    1
    11    23    24    1
    12    24    25    1
    13    25    26    1
    14    26    27    1
    15    27    28    1
    16     4     5   ar
    17     5     6   ar
    18     9    10    1
    19    10    11    1
    20    11    12   ar
    21    12    13   ar
    22    13    14   ar
    23    14    15   ar
    24    15    16   ar
    25    16    17    1
    26    17    18    2
    27    17    19    2
    28    17     8    1
    29     6     1   ar
    30    16    11   ar
    31    28    24    1
@<TRIPOS>MOLECULE
*****
 28 31 0 0 0
SMALL
GASTEIGER

@<TRIPOS>ATOM
      1 C         141.9878  142.0448  164.6106 C.ar    1  UNL1        0.0191
      2 C         143.0235  143.0438  164.1873 C.ar    1  UNL1        0.0023
      3 C         143.0709  143.5181  162.7651 C.ar    1  UNL1        0.0367
      4 C         142.0826  142.9933  161.7662 C.ar    1  UNL1        0.1385
      5 C         141.0469  141.9943  162.1894 C.ar    1  UNL1        0.0367
      6 C         140.9995  141.5200  163.6117 C.ar    1  UNL1        0.0023
      7 C         143.3803  139.5050  165.3920 C.3     1  UNL1        0.0300
      8 C         142.6366  140.3006  166.4236 C.3     1  UNL1        0.1779
      9 C         141.9404  141.5705  166.0329 C.3     1  UNL1        0.2102
     10 O         141.1967  142.3660  167.0644 O.3     1  UNL1       -0.4717
     11 C         141.1493  141.8917  168.4867 C.ar    1  UNL1        0.1559
     12 C         140.4057  142.6872  169.5182 C.ar    1  UNL1        0.0382
     13 C         140.3582  142.2129  170.9404 C.ar    1  UNL1        0.0032
     14 C         141.0545  140.9430  171.3311 C.ar    1  UNL1        0.0015
     15 C         141.7981  140.1475  170.2996 C.ar    1  UNL1        0.0214
     16 C         141.8456  140.6218  168.8774 C.ar    1  UNL1        0.1395
     17 S         142.5892  139.8262  167.8458 S.O2    1  UNL1        0.0137
     18 O         142.8290  138.9726  169.0557 O.2     1  UNL1       -0.1685
     19 O         143.4162  138.7342  167.2345 O.2     1  UNL1       -0.1685
     20 O         142.1301  143.4677  160.3439 O.3     1  UNL1       -0.4754
     21 C         141.5198  144.7865  159.9723 C.3     1  UNL1        0.2068
     22 C         140.1248  145.1180  160.4129 C.3     1  UNL1        0.0646
     23 C         139.8999  145.8545  161.7002 C.3     1  UNL1        0.0759
     24 N         139.3104  145.1400  162.8800 N.3     1  UNL1       -0.2726
     25 C         138.0319  144.3556  162.8871 C.3     1  UNL1        0.0721
     26 C         137.8273  143.8152  164.2713 C.3     1  UNL1        0.0188
     27 C         138.9795  144.2656  165.1197 C.3     1  UNL1        0.0188
     28 C         139.8961  145.0844  164.2598 C.3     1  UNL1        0.0721
@<TRIPOS>BOND
     1     8     7    1
     2     8     9    1
     3     9     1    1
     4     1     2   ar
     5     2     3   ar
     6     3     4   ar
     7     4    20    1
     8    20    21    1
     9    21    22    1
    10    22    23    1
    11    23    24    1
    12    24    25    1
    13    25    26    1
    14    26    27    1
    15    27    28    1
    16     4     5   ar
    17     5     6   ar
    18     9    10    1
    19    10    11    1
    20    11    12   ar
    21    12    13   ar
    22    13    14   ar
    23    14    15   ar
    24    15    16   ar
    25    16    17    1
    26    17    18    2
    27    17    19    2
    28    17     8    1
    29     6     1   ar
    30    16    11   ar
    31    28    24    1
@<TRIPOS>MOLECULE
*****
 28 31 0 0 0
SMALL
GASTEIGER

@<TRIPOS>ATOM
      1 C         139.7374  139.7264  164.9796 C.ar    1  UNL1        0.0191
      2 C         139.0373  140.7030  164.0818 C.ar    1  UNL1        0.0023
      3 C         138.7431  140.3349  162.6578 C.ar    1  UNL1        0.0367
      4 C         139.1489  138.9901  162.1316 C.ar    1  UNL1        0.1385
      5 C         139.8490  138.0135  163.0294 C.ar    1  UNL1        0.0367
      6 C         140.1432  138.3817  164.4534 C.ar    1  UNL1        0.0023
      7 C         137.8367  138.9273  167.1588 C.3     1  UNL1        0.0300
      8 C         139.0813  139.6950  167.4933 C.3     1  UNL1        0.1779
      9 C         140.0316  140.0945  166.4037 C.3     1  UNL1        0.2102
     10 O         141.2761  140.8622  166.7381 O.3     1  UNL1       -0.4717
     11 C         141.5704  141.2303  168.1622 C.ar    1  UNL1        0.1559
     12 C         142.8149  141.9979  168.4966 C.ar    1  UNL1        0.0382
     13 C         143.1091  142.3660  169.9207 C.ar    1  UNL1        0.0032
     14 C         142.1588  141.9665  171.0103 C.ar    1  UNL1        0.0015
     15 C         140.9143  141.1988  170.6759 C.ar    1  UNL1        0.0214
     16 C         140.6201  140.8307  169.2518 C.ar    1  UNL1        0.1395
     17 S         139.3755  140.0631  168.9173 S.O2    1  UNL1        0.0137
     18 O         139.2186  140.1785  170.4047 O.2     1  UNL1       -0.1685
     19 O         138.0764  139.3355  169.0995 O.2     1  UNL1       -0.1685
     20 O         138.8547  138.6220  160.7075 O.3     1  UNL1       -0.4754
     21 C         139.9811  138.3965  159.7430 C.3     1  UNL1        0.2068
     22 C         141.0343  139.4488  159.5607 C.3     1  UNL1        0.0646
     23 C         142.4376  139.1940  160.0254 C.3     1  UNL1        0.0759
     24 N         142.8136  139.4549  161.4539 N.3     1  UNL1       -0.2726
     25 C         143.5543  138.5135  162.3567 C.3     1  UNL1        0.0721
     26 C         143.7134  139.1798  163.6912 C.3     1  UNL1        0.0188
     27 C         143.0710  140.5331  163.6130 C.3     1  UNL1        0.0188
     28 C         142.5149  140.7031  162.2303 C.3     1  UNL1        0.0721
@<TRIPOS>BOND
     1     8     7    1
     2     8     9    1
     3     9     1    1
     4     1     2   ar
     5     2     3   ar
     6     3     4   ar
     7     4    20    1
     8    20    21    1
     9    21    22    1
    10    22    23    1
    11    23    24    1
    12    24    25    1
    13    25    26    1
    14    26    27    1
    15    27    28    1
    16     4     5   ar
    17     5     6   ar
    18     9    10    1
    19    10    11    1
    20    11    12   ar
    21    12    13   ar
    22    13    14   ar
    23    14    15   ar
    24    15    16   ar
    25    16    17    1
    26    17    18    2
    27    17    19    2
    28    17     8    1
    29     6     1   ar
    30    16    11   ar
    31    28    24    1
@<TRIPOS>MOLECULE
*****
 28 31 0 0 0
SMALL
GASTEIGER

@<TRIPOS>ATOM
      1 C         141.3592  140.4260  164.4615 C.ar    1  UNL1        0.0191
      2 C         142.2324  139.3141  163.9604 C.ar    1  UNL1        0.0023
      3 C         142.4685  139.1513  162.4881 C.ar    1  UNL1        0.0367
      4 C         141.8315  140.1005  161.5169 C.ar    1  UNL1        0.1385
      5 C         140.9583  141.2124  162.0180 C.ar    1  UNL1        0.0367
      6 C         140.7222  141.3752  163.4903 C.ar    1  UNL1        0.0023
      7 C         139.0302  139.0585  165.7673 C.3     1  UNL1        0.0300
      8 C         139.9585  139.9051  166.5868 C.3     1  UNL1        0.1779
      9 C         141.1231  140.5889  165.9339 C.3     1  UNL1        0.2102
     10 O         142.0514  141.4355  166.7532 O.3     1  UNL1       -0.4717
     11 C         141.8153  141.5983  168.2256 C.ar    1  UNL1        0.1559
     12 C         142.7436  142.4449  169.0450 C.ar    1  UNL1        0.0382
     13 C         142.5074  142.6077  170.5173 C.ar    1  UNL1        0.0032
     14 C         141.3429  141.9239  171.1702 C.ar    1  UNL1        0.0015
     15 C         140.4145  141.0773  170.3508 C.ar    1  UNL1        0.0214
     16 C         140.6507  140.9145  168.8785 C.ar    1  UNL1        0.1395
     17 S         139.7223  140.0679  168.0591 S.O2    1  UNL1        0.0137
     18 O         139.0871  139.9187  169.4097 O.2     1  UNL1       -0.1685
     19 O         138.5734  139.1694  167.7087 O.2     1  UNL1       -0.1685
     20 O         142.0676  139.9376  160.0445 O.3     1  UNL1       -0.4754
     21 C         142.6979  141.0490  159.2586 C.3     1  UNL1        0.2068
     22 C         144.0227  141.6100  159.6829 C.3     1  UNL1        0.0646
     23 C         144.0760  142.8099  160.5816 C.3     1  UNL1        0.0759
     24 N         144.3578  142.6390  162.0449 N.3     1  UNL1       -0.2726
     25 C         143.8056  143.4849  163.1538 C.3     1  UNL1        0.0721
     26 C         144.3479  142.9610  164.4505 C.3     1  UNL1        0.0188
     27 C         145.2353  141.7913  164.1430 C.3     1  UNL1        0.0188
     28 C         145.2414  141.5924  162.6562 C.3     1  UNL1        0.0721
@<TRIPOS>BOND
     1     8     7    1
     2     8     9    1
     3     9     1    1
     4     1     2   ar
     5     2     3   ar
     6     3     4   ar
     7     4    20    1
     8    20    21    1
     9    21    22    1
    10    22    23    1
    11    23    24    1
    12    24    25    1
    13    25    26    1
    14    26    27    1
    15    27    28    1
    16     4     5   ar
    17     5     6   ar
    18     9    10    1
    19    10    11    1
    20    11    12   ar
    21    12    13   ar
    22    13    14   ar
    23    14    15   ar
    24    15    16   ar
    25    16    17    1
    26    17    18    2
    27    17    19    2
    28    17     8    1
    29     6     1   ar
    30    16    11   ar
    31    28    24    1
@<TRIPOS>MOLECULE
*****
 28 31 0 0 0
SMALL
GASTEIGER

@<TRIPOS>ATOM
      1 C         141.5241  139.9313  164.1074 C.ar    1  UNL1        0.0191
      2 C         142.2212  140.7817  163.0871 C.ar    1  UNL1        0.0023
      3 C         142.0980  140.4552  161.6283 C.ar    1  UNL1        0.0367
      4 C         141.2777  139.2784  161.1897 C.ar    1  UNL1        0.1385
      5 C         140.5807  138.4281  162.2100 C.ar    1  UNL1        0.0367
      6 C         140.7039  138.7545  163.6688 C.ar    1  UNL1        0.0023
      7 C         143.1751  138.1833  165.9014 C.3     1  UNL1        0.0300
      8 C         142.4728  139.3838  166.4633 C.3     1  UNL1        0.1779
      9 C         141.6473  140.2578  165.5663 C.3     1  UNL1        0.2102
     10 O         140.9450  141.4582  166.1281 O.3     1  UNL1       -0.4717
     11 C         141.0682  141.7847  167.5870 C.ar    1  UNL1        0.1559
     12 C         140.3659  142.9851  168.1488 C.ar    1  UNL1        0.0382
     13 C         140.4891  143.3115  169.6077 C.ar    1  UNL1        0.0032
     14 C         141.3146  142.4375  170.5047 C.ar    1  UNL1        0.0015
     15 C         142.0169  141.2370  169.9428 C.ar    1  UNL1        0.0214
     16 C         141.8937  140.9107  168.4840 C.ar    1  UNL1        0.1395
     17 S         142.5960  139.7102  167.9221 S.O2    1  UNL1        0.0137
     18 O         143.0135  139.6073  169.3592 O.2     1  UNL1       -0.1685
     19 O         143.4433  138.4740  167.8593 O.2     1  UNL1       -0.1685
     20 O         141.1545  138.9519  159.7308 O.3     1  UNL1       -0.4754
     21 C         139.8172  138.5960  159.1523 C.3     1  UNL1        0.2068
     22 C         139.1010  139.5698  158.2643 C.3     1  UNL1        0.0646
     23 C         138.0624  140.4863  158.8402 C.3     1  UNL1        0.0759
     24 N         138.1594  140.9243  160.2715 N.3     1  UNL1       -0.2726
     25 C         137.5293  140.2393  161.4479 C.3     1  UNL1        0.0721
     26 C         137.8840  141.0159  162.6812 C.3     1  UNL1        0.0188
     27 C         138.7332  142.1809  162.2671 C.3     1  UNL1        0.0188
     28 C         138.9034  142.1243  160.7778 C.3     1  UNL1        0.0721
@<TRIPOS>BOND
     1     8     7    1
     2     8     9    1
     3     9     1    1
     4     1     2   ar
     5     2     3   ar
     6     3     4   ar
     7     4    20    1
     8    20    21    1
     9    21    22    1
    10    22    23    1
    11    23    24    1
    12    24    25    1
    13    25    26    1
    14    26    27    1
    15    27    28    1
    16     4     5   ar
    17     5     6   ar
    18     9    10    1
    19    10    11    1
    20    11    12   ar
    21    12    13   ar
    22    13    14   ar
    23    14    15   ar
    24    15    16   ar
    25    16    17    1
    26    17    18    2
    27    17    19    2
    28    17     8    1
    29     6     1   ar
    30    16    11   ar
    31    28    24    1
@<TRIPOS>MOLECULE
*****
 28 31 0 0 0
SMALL
GASTEIGER

@<TRIPOS>ATOM
      1 C         141.0818  140.8327  164.4461 C.ar    1  UNL1        0.0191
      2 C         141.9417  139.7748  163.8206 C.ar    1  UNL1        0.0023
      3 C         142.1704  139.7738  162.3382 C.ar    1  UNL1        0.0367
      4 C         141.5392  140.8308  161.4812 C.ar    1  UNL1        0.1385
      5 C         140.6792  141.8887  162.1067 C.ar    1  UNL1        0.0367
      6 C         140.4505  141.8896  163.5892 C.ar    1  UNL1        0.0023
      7 C         138.8520  139.2054  165.6208 C.3     1  UNL1        0.0300
      8 C         139.7381  140.0200  166.5160 C.3     1  UNL1        0.1779
      9 C         140.8530  140.8336  165.9286 C.3     1  UNL1        0.2102
     10 O         141.7392  141.6482  166.8237 O.3     1  UNL1       -0.4717
     11 C         141.5104  141.6492  168.3062 C.ar    1  UNL1        0.1559
     12 C         142.3966  142.4637  169.2012 C.ar    1  UNL1        0.0382
     13 C         142.1678  142.4647  170.6837 C.ar    1  UNL1        0.0032
     14 C         141.0529  141.6510  171.2710 C.ar    1  UNL1        0.0015
     15 C         140.1668  140.8365  170.3760 C.ar    1  UNL1        0.0214
     16 C         140.3955  140.8355  168.8935 C.ar    1  UNL1        0.1395
     17 S         139.5094  140.0209  167.9984 S.O2    1  UNL1        0.0137
     18 O         138.8992  139.7003  169.3307 O.2     1  UNL1       -0.1685
     19 O         138.4113  139.0950  167.5660 O.2     1  UNL1       -0.1685
     20 O         141.7679  140.8298  159.9987 O.3     1  UNL1       -0.4754
     21 C         142.0224  139.5381  159.2800 C.3     1  UNL1        0.2068
     22 C         141.1016  139.0974  158.1809 C.3     1  UNL1        0.0646
     23 C         139.8007  138.4294  158.5151 C.3     1  UNL1        0.0759
     24 N         139.0555  138.8178  159.7575 N.3     1  UNL1       -0.2726
     25 C         139.0801  138.0847  161.0659 C.3     1  UNL1        0.0721
     26 C         138.1947  138.8213  162.0268 C.3     1  UNL1        0.0188
     27 C         137.6228  140.0098  161.3122 C.3     1  UNL1        0.0188
     28 C         138.1549  140.0076  159.9098 C.3     1  UNL1        0.0721
@<TRIPOS>BOND
     1     8     7    1
     2     8     9    1
     3     9     1    1
     4     1     2   ar
     5     2     3   ar
     6     3     4   ar
     7     4    20    1
     8    20    21    1
     9    21    22    1
    10    22    23    1
    11    23    24    1
    12    24    25    1
    13    25    26    1
    14    26    27    1
    15    27    28    1
    16     4     5   ar
    17     5     6   ar
    18     9    10    1
    19    10    11    1
    20    11    12   ar
    21    12    13   ar
    22    13    14   ar
    23    14    15   ar
    24    15    16   ar
    25    16    17    1
    26    17    18    2
    27    17    19    2
    28    17     8    1
    29     6     1   ar
    30    16    11   ar
    31    28    24    1
@<TRIPOS>MOLECULE
*****
 28 31 0 0 0
SMALL
GASTEIGER

@<TRIPOS>ATOM
      1 C         141.1847  142.8411  164.7384 C.ar    1  UNL1        0.0191
      2 C         142.2668  142.2976  163.8531 C.ar    1  UNL1        0.0023
      3 C         142.5386  142.9356  162.5231 C.ar    1  UNL1        0.0367
      4 C         141.7285  144.1171  162.0783 C.ar    1  UNL1        0.1385
      5 C         140.6465  144.6606  162.9636 C.ar    1  UNL1        0.0367
      6 C         140.3746  144.0226  164.2936 C.ar    1  UNL1        0.0023
      7 C         139.2141  140.5887  164.9467 C.3     1  UNL1        0.0300
      8 C         139.9275  141.0769  166.1727 C.3     1  UNL1        0.1779
      9 C         140.9128  142.2031  166.0685 C.3     1  UNL1        0.2102
     10 O         141.6261  142.6914  167.2943 O.3     1  UNL1       -0.4717
     11 C         141.3542  142.0534  168.6244 C.ar    1  UNL1        0.1559
     12 C         142.0675  142.5416  169.8503 C.ar    1  UNL1        0.0382
     13 C         141.7956  141.9036  171.1803 C.ar    1  UNL1        0.0032
     14 C         140.8103  140.7774  171.2845 C.ar    1  UNL1        0.0015
     15 C         140.0969  140.2892  170.0586 C.ar    1  UNL1        0.0214
     16 C         140.3689  140.9272  168.7286 C.ar    1  UNL1        0.1395
     17 S         139.6555  140.4390  167.5027 S.O2    1  UNL1        0.0137
     18 O         139.0645  139.5206  168.5310 O.2     1  UNL1       -0.1685
     19 O         138.7369  139.6318  166.6339 O.2     1  UNL1       -0.1685
     20 O         142.0005  144.7550  160.7482 O.3     1  UNL1       -0.4754
     21 C         140.8735  145.3508  159.9577 C.3     1  UNL1        0.2068
     22 C         140.5352  144.8020  158.6034 C.3     1  UNL1        0.0646
     23 C         139.5961  143.6389  158.4785 C.3     1  UNL1        0.0759
     24 N         139.4940  142.6350  159.5883 N.3     1  UNL1       -0.2726
     25 C         138.4545  142.6186  160.6696 C.3     1  UNL1        0.0721
     26 C         138.7315  141.4446  161.5612 C.3     1  UNL1        0.0188
     27 C         139.9423  140.7354  161.0310 C.3     1  UNL1        0.0188
     28 C         140.4135  141.4711  159.8117 C.3     1  UNL1        0.0721
@<TRIPOS>BOND
     1     8     7    1
     2     8     9    1
     3     9     1    1
     4     1     2   ar
     5     2     3   ar
     6     3     4   ar
     7     4    20    1
     8    20    21    1
     9    21    22    1
    10    22    23    1
    11    23    24    1
    12    24    25    1
    13    25    26    1
    14    26    27    1
    15    27    28    1
    16     4     5   ar
    17     5     6   ar
    18     9    10    1
    19    10    11    1
    20    11    12   ar
    21    12    13   ar
    22    13    14   ar
    23    14    15   ar
    24    15    16   ar
    25    16    17    1
    26    17    18    2
    27    17    19    2
    28    17     8    1
    29     6     1   ar
    30    16    11   ar
    31    28    24    1
@<TRIPOS>MOLECULE
*****
 28 31 0 0 0
SMALL
GASTEIGER

@<TRIPOS>ATOM
      1 C         141.6100  141.1590  164.1294 C.ar    1  UNL1        0.0191
      2 C         141.7374  139.8075  163.4913 C.ar    1  UNL1        0.0023
      3 C         141.6056  139.6649  162.0039 C.ar    1  UNL1        0.0367
      4 C         141.3465  140.8739  161.1547 C.ar    1  UNL1        0.1385
      5 C         141.2191  142.2254  161.7928 C.ar    1  UNL1        0.0367
      6 C         141.3509  142.3679  163.2801 C.ar    1  UNL1        0.0023
      7 C         143.8664  142.7605  165.2887 C.3     1  UNL1        0.0300
      8 C         142.8700  142.1023  166.1965 C.3     1  UNL1        0.1779
      9 C         141.7418  141.3015  165.6168 C.3     1  UNL1        0.2102
     10 O         140.7454  140.6434  166.5245 O.3     1  UNL1       -0.4717
     11 C         140.8772  140.7859  168.0120 C.ar    1  UNL1        0.1559
     12 C         139.8808  140.1278  168.9197 C.ar    1  UNL1        0.0382
     13 C         140.0126  140.2704  170.4070 C.ar    1  UNL1        0.0032
     14 C         141.1408  141.0711  170.9867 C.ar    1  UNL1        0.0015
     15 C         142.1372  141.7293  170.0790 C.ar    1  UNL1        0.0214
     16 C         142.0054  141.5867  168.5916 C.ar    1  UNL1        0.1395
     17 S         143.0018  142.2449  167.6838 S.O2    1  UNL1        0.0137
     18 O         143.5452  142.6670  169.0167 O.2     1  UNL1       -0.1685
     19 O         144.1869  143.0497  167.2390 O.2     1  UNL1       -0.1685
     20 O         141.2147  140.7313  159.6672 O.3     1  UNL1       -0.4754
     21 C         139.9089  140.3007  159.0679 C.3     1  UNL1        0.2068
     22 C         138.6225  140.8795  159.5779 C.3     1  UNL1        0.0646
     23 C         137.8398  140.1544  160.6323 C.3     1  UNL1        0.0759
     24 N         137.8456  140.6536  162.0468 N.3     1  UNL1       -0.2726
     25 C         137.6558  142.0770  162.4803 C.3     1  UNL1        0.0721
     26 C         137.7352  142.1201  163.9776 C.3     1  UNL1        0.0188
     27 C         137.9740  140.7232  164.4695 C.3     1  UNL1        0.0188
     28 C         138.0423  139.8169  163.2762 C.3     1  UNL1        0.0721
@<TRIPOS>BOND
     1     8     7    1
     2     8     9    1
     3     9     1    1
     4     1     2   ar
     5     2     3   ar
     6     3     4   ar
     7     4    20    1
     8    20    21    1
     9    21    22    1
    10    22    23    1
    11    23    24    1
    12    24    25    1
    13    25    26    1
    14    26    27    1
    15    27    28    1
    16     4     5   ar
    17     5     6   ar
    18     9    10    1
    19    10    11    1
    20    11    12   ar
    21    12    13   ar
    22    13    14   ar
    23    14    15   ar
    24    15    16   ar
    25    16    17    1
    26    17    18    2
    27    17    19    2
    28    17     8    1
    29     6     1   ar
    30    16    11   ar
    31    28    24    1
