@<TRIPOS>MOLECULE
*****
 42 46 0 0 0
SMALL
GASTEIGER

@<TRIPOS>ATOM
      1 C         144.0786  142.5033  158.7535 C.3     1  UNL1        0.0317
      2 C         144.0794  142.2008  160.2226 C.ar    1  UNL1       -0.0141
      3 C         144.5043  143.2521  161.2046 C.ar    1  UNL1       -0.0024
      4 C         144.5051  142.9497  162.6738 C.ar    1  UNL1        0.0144
      5 C         144.0809  141.5958  163.1611 C.ar    1  UNL1        0.0511
      6 C         143.6560  140.5446  162.1791 C.ar    1  UNL1        0.0226
      7 C         143.6552  140.8471  160.7099 C.ar    1  UNL1        0.0393
      8 N         144.0817  141.2933  164.6302 N.am    1  UNL1       -0.2804
      9 C         142.8098  141.3989  165.4183 C.2     1  UNL1        0.2495
     10 O         141.5371  141.8069  164.7372 O.2     1  UNL1       -0.2698
     11 H         144.9169  141.0255  165.0773 H       1  UNL1        0.1552
     12 C         142.8105  141.0964  166.8875 C.ar    1  UNL1        0.0536
     13 C         142.5144  139.7064  167.3672 C.ar    1  UNL1        0.0045
     14 C         142.5151  139.4039  168.8364 C.ar    1  UNL1        0.0001
     15 C         142.8120  140.4914  169.8259 C.ar    1  UNL1        0.0039
     16 C         143.1082  141.8814  169.3463 C.ar    1  UNL1        0.0716
     17 C         143.1074  142.1839  167.8770 C.ar    1  UNL1        0.0084
     18 C         143.4051  142.9690  170.3357 C.3     1  UNL1        0.4186
     19 F         143.7019  144.0566  171.3251 F       1  UNL1       -0.1659
     20 F         141.9357  143.2256  170.4945 F       1  UNL1       -0.1659
     21 F         144.8744  142.7125  170.1769 F       1  UNL1       -0.1659
     22 C         143.2303  139.7958  159.7279 C.1     1  UNL1       -0.0585
     23 C         142.8053  138.7446  158.7459 C.1     1  UNL1       -0.0386
     24 C         142.3804  137.6933  157.7639 C.ar    1  UNL1        0.1481
     25 N         143.1500  136.4556  157.4092 N.ar    1  UNL1       -0.1595
     26 N         142.3565  135.6926  156.3903 N.ar    1  UNL1       -0.2352
     27 C         141.0965  136.4587  156.1153 C.ar    1  UNL1        0.1659
     28 N         139.9377  136.1901  155.2016 N.ar    1  UNL1       -0.2050
     29 C         138.7937  137.1580  155.1368 C.ar    1  UNL1        0.2014
     30 N         138.8085  138.3946  155.9857 N.ar    1  UNL1       -0.2093
     31 C         139.9673  138.6632  156.8995 C.ar    1  UNL1        0.1322
     32 N         139.9821  139.8997  157.7484 N.pl3   1  UNL1       -0.3424
     33 C         141.1113  137.6952  156.9643 C.ar    1  UNL1        0.0938
     34 H         139.2312  140.5350  157.7059 H       1  UNL1        0.1437
     35 H         140.7427  140.0760  158.3482 H       1  UNL1        0.1437
     36 C         142.7532  134.3917  155.7575 C.3     1  UNL1        0.1096
     37 C         142.1784  133.9978  154.4291 C.3     1  UNL1        0.0418
     38 C         142.5752  132.6970  153.7962 C.3     1  UNL1        0.0741
     39 N         143.5467  131.7901  154.4917 N.3     1  UNL1       -0.2714
     40 C         143.9435  130.4893  153.8589 C.3     1  UNL1        0.0896
     41 C         144.1215  132.1841  155.8200 C.3     1  UNL1        0.0741
     42 C         143.7247  133.4849  156.4528 C.3     1  UNL1        0.0418
@<TRIPOS>BOND
     1     1     2    1
     2     2     3   ar
     3     3     4   ar
     4     4     5   ar
     5     5     8    1
     6     8     9   am
     7     9    10    2
     8     9    12    1
     9    12    13   ar
    10    13    14   ar
    11    14    15   ar
    12    15    16   ar
    13    16    18    1
    14    18    19    1
    15    18    20    1
    16    18    21    1
    17    16    17   ar
    18     5     6   ar
    19     6     7   ar
    20     7    22    1
    21    22    23    3
    22    23    24    1
    23    24    25   ar
    24    25    26   ar
    25    26    36    1
    26    36    37    1
    27    37    38    1
    28    38    39    1
    29    39    40    1
    30    39    41    1
    31    41    42    1
    32    26    27   ar
    33    27    28   ar
    34    28    29   ar
    35    29    30   ar
    36    30    31   ar
    37    31    32    1
    38    31    33   ar
    39     7     2   ar
    40    33    24   ar
    41    17    12   ar
    42    42    36    1
    43    33    27   ar
    44     8    11    1
    45    32    34    1
    46    32    35    1
@<TRIPOS>MOLECULE
*****
 42 46 0 0 0
SMALL
GASTEIGER

@<TRIPOS>ATOM
      1 C         141.1624  145.1387  159.4491 C.3     1  UNL1        0.0317
      2 C         141.4431  144.6963  160.8545 C.ar    1  UNL1       -0.0141
      3 C         140.6740  145.2922  161.9962 C.ar    1  UNL1       -0.0024
      4 C         140.9546  144.8498  163.4016 C.ar    1  UNL1        0.0144
      5 C         142.0045  143.8114  163.6656 C.ar    1  UNL1        0.0511
      6 C         142.7737  143.2155  162.5240 C.ar    1  UNL1        0.0226
      7 C         142.4930  143.6580  161.1185 C.ar    1  UNL1        0.0393
      8 N         142.2852  143.3689  165.0711 N.am    1  UNL1       -0.2804
      9 C         142.0997  141.9310  165.4559 C.2     1  UNL1        0.2495
     10 O         141.6336  140.9356  164.4352 O.2     1  UNL1       -0.2698
     11 H         142.5911  144.0223  165.7410 H       1  UNL1        0.1552
     12 C         142.3804  141.4886  166.8614 C.ar    1  UNL1        0.0536
     13 C         142.2587  140.0397  167.2301 C.ar    1  UNL1        0.0045
     14 C         142.5394  139.5973  168.6356 C.ar    1  UNL1        0.0001
     15 C         142.9418  140.6037  169.6725 C.ar    1  UNL1        0.0039
     16 C         143.0636  142.0526  169.3039 C.ar    1  UNL1        0.0716
     17 C         142.7829  142.4950  167.8983 C.ar    1  UNL1        0.0084
     18 C         143.4660  143.0591  170.3406 C.3     1  UNL1        0.4186
     19 F         143.8686  144.0655  171.3774 F       1  UNL1       -0.1659
     20 F         144.8792  142.5602  170.2763 F       1  UNL1       -0.1659
     21 F         142.0529  143.5580  170.4050 F       1  UNL1       -0.1659
     22 C         143.2621  143.0621  159.9769 C.1     1  UNL1       -0.0585
     23 C         144.0314  142.4663  158.8352 C.1     1  UNL1       -0.0386
     24 C         144.8006  141.8704  157.6936 C.ar    1  UNL1        0.1481
     25 N         145.9817  142.4902  157.0074 N.ar    1  UNL1       -0.1595
     26 N         146.4347  141.5530  155.9275 N.ar    1  UNL1       -0.2352
     27 C         145.5336  140.3539  155.9462 C.ar    1  UNL1        0.1659
     28 N         145.5023  139.1088  155.1104 N.ar    1  UNL1       -0.2050
     29 C         144.4610  138.0599  155.3661 C.ar    1  UNL1        0.2014
     30 N         143.4510  138.2561  156.4576 N.ar    1  UNL1       -0.2093
     31 C         143.4824  139.5012  157.2935 C.ar    1  UNL1        0.1322
     32 N         142.4724  139.6974  158.3850 N.pl3   1  UNL1       -0.3424
     33 C         144.5237  140.5501  157.0378 C.ar    1  UNL1        0.0938
     34 H         141.7889  139.0089  158.5528 H       1  UNL1        0.1437
     35 H         142.4930  140.5146  158.9336 H       1  UNL1        0.1437
     36 C         147.5866  141.7756  154.9928 C.3     1  UNL1        0.1096
     37 C         147.3305  142.1354  153.5592 C.3     1  UNL1        0.0418
     38 C         148.4825  142.3581  152.6246 C.3     1  UNL1        0.0741
     39 N         149.8904  142.2210  153.1235 N.3     1  UNL1       -0.2714
     40 C         151.0423  142.4436  152.1888 C.3     1  UNL1        0.0896
     41 C         150.1464  141.8612  154.5570 C.3     1  UNL1        0.0741
     42 C         148.9945  141.6385  155.4916 C.3     1  UNL1        0.0418
@<TRIPOS>BOND
     1     1     2    1
     2     2     3   ar
     3     3     4   ar
     4     4     5   ar
     5     5     8    1
     6     8     9   am
     7     9    10    2
     8     9    12    1
     9    12    13   ar
    10    13    14   ar
    11    14    15   ar
    12    15    16   ar
    13    16    18    1
    14    18    19    1
    15    18    20    1
    16    18    21    1
    17    16    17   ar
    18     5     6   ar
    19     6     7   ar
    20     7    22    1
    21    22    23    3
    22    23    24    1
    23    24    25   ar
    24    25    26   ar
    25    26    36    1
    26    36    37    1
    27    37    38    1
    28    38    39    1
    29    39    40    1
    30    39    41    1
    31    41    42    1
    32    26    27   ar
    33    27    28   ar
    34    28    29   ar
    35    29    30   ar
    36    30    31   ar
    37    31    32    1
    38    31    33   ar
    39     7     2   ar
    40    33    24   ar
    41    17    12   ar
    42    42    36    1
    43    33    27   ar
    44     8    11    1
    45    32    34    1
    46    32    35    1
@<TRIPOS>MOLECULE
*****
 42 46 0 0 0
SMALL
GASTEIGER

@<TRIPOS>ATOM
      1 C         138.2576  141.5581  157.5431 C.3     1  UNL1        0.0317
      2 C         138.8069  140.2131  157.1699 C.ar    1  UNL1       -0.0141
      3 C         138.7241  139.7368  155.7500 C.ar    1  UNL1       -0.0024
      4 C         139.2733  138.3918  155.3768 C.ar    1  UNL1        0.0144
      5 C         139.9056  137.5231  156.4236 C.ar    1  UNL1        0.0511
      6 C         139.9884  137.9995  157.8436 C.ar    1  UNL1        0.0226
      7 C         139.4391  139.3445  158.2167 C.ar    1  UNL1        0.0393
      8 N         140.4549  136.1781  156.0505 N.am    1  UNL1       -0.2804
      9 C         141.9340  135.9329  156.0971 C.2     1  UNL1        0.2495
     10 O         142.8637  137.0326  156.5168 O.2     1  UNL1       -0.2698
     11 H         139.8447  135.4563  155.7750 H       1  UNL1        0.1552
     12 C         142.4833  134.5879  155.7240 C.ar    1  UNL1        0.0536
     13 C         142.2065  134.0152  154.3656 C.ar    1  UNL1        0.0045
     14 C         142.7558  132.6702  153.9925 C.ar    1  UNL1        0.0001
     15 C         143.5821  131.8979  154.9778 C.ar    1  UNL1        0.0039
     16 C         143.8590  132.4705  156.3362 C.ar    1  UNL1        0.0716
     17 C         143.3096  133.8156  156.7093 C.ar    1  UNL1        0.0084
     18 C         144.6852  131.6983  157.3216 C.3     1  UNL1        0.4186
     19 F         145.5114  130.9260  158.3069 F       1  UNL1       -0.1659
     20 F         144.6432  130.5012  156.4186 F       1  UNL1       -0.1659
     21 F         144.7273  132.8953  158.2246 F       1  UNL1       -0.1659
     22 C         139.5219  139.8208  159.6366 C.1     1  UNL1       -0.0585
     23 C         139.6048  140.2973  161.0566 C.1     1  UNL1       -0.0386
     24 C         139.6876  140.7737  162.4765 C.ar    1  UNL1        0.1481
     25 N         140.3315  140.0411  163.6161 N.ar    1  UNL1       -0.1595
     26 N         140.1829  140.8809  164.8500 N.ar    1  UNL1       -0.2352
     27 C         139.4472  142.1326  164.4730 C.ar    1  UNL1        0.1659
     28 N         139.0165  143.3241  165.2759 N.ar    1  UNL1       -0.2050
     29 C         138.2797  144.4494  164.6119 C.ar    1  UNL1        0.2014
     30 N         137.9736  144.3831  163.1450 N.ar    1  UNL1       -0.2093
     31 C         138.4043  143.1915  162.3421 C.ar    1  UNL1        0.1322
     32 N         138.0982  143.1252  160.8751 N.pl3   1  UNL1       -0.3424
     33 C         139.1411  142.0663  163.0061 C.ar    1  UNL1        0.0938
     34 H         137.6146  143.8638  160.4393 H       1  UNL1        0.1437
     35 H         138.3809  142.3432  160.3481 H       1  UNL1        0.1437
     36 C         140.6823  140.5307  166.2204 C.3     1  UNL1        0.1096
     37 C         139.7375  140.5301  167.3855 C.3     1  UNL1        0.0418
     38 C         140.2369  140.1799  168.7559 C.3     1  UNL1        0.0741
     39 N         141.6811  139.8302  168.9612 N.3     1  UNL1       -0.2714
     40 C         142.1805  139.4799  170.3315 C.3     1  UNL1        0.0896
     41 C         142.6258  139.8307  167.7961 C.3     1  UNL1        0.0741
     42 C         142.1264  140.1810  166.4257 C.3     1  UNL1        0.0418
@<TRIPOS>BOND
     1     1     2    1
     2     2     3   ar
     3     3     4   ar
     4     4     5   ar
     5     5     8    1
     6     8     9   am
     7     9    10    2
     8     9    12    1
     9    12    13   ar
    10    13    14   ar
    11    14    15   ar
    12    15    16   ar
    13    16    18    1
    14    18    19    1
    15    18    20    1
    16    18    21    1
    17    16    17   ar
    18     5     6   ar
    19     6     7   ar
    20     7    22    1
    21    22    23    3
    22    23    24    1
    23    24    25   ar
    24    25    26   ar
    25    26    36    1
    26    36    37    1
    27    37    38    1
    28    38    39    1
    29    39    40    1
    30    39    41    1
    31    41    42    1
    32    26    27   ar
    33    27    28   ar
    34    28    29   ar
    35    29    30   ar
    36    30    31   ar
    37    31    32    1
    38    31    33   ar
    39     7     2   ar
    40    33    24   ar
    41    17    12   ar
    42    42    36    1
    43    33    27   ar
    44     8    11    1
    45    32    34    1
    46    32    35    1
@<TRIPOS>MOLECULE
*****
 42 46 0 0 0
SMALL
GASTEIGER

@<TRIPOS>ATOM
      1 C         140.8573  145.4211  158.8657 C.3     1  UNL1        0.0317
      2 C         141.0159  145.0370  160.3070 C.ar    1  UNL1       -0.0141
      3 C         140.1314  145.6543  161.3494 C.ar    1  UNL1       -0.0024
      4 C         140.2899  145.2703  162.7906 C.ar    1  UNL1        0.0144
      5 C         141.3331  144.2689  163.1896 C.ar    1  UNL1        0.0511
      6 C         142.2176  143.6516  162.1472 C.ar    1  UNL1        0.0226
      7 C         142.0589  144.0356  160.7059 C.ar    1  UNL1        0.0393
      8 N         141.4917  143.8848  164.6309 N.am    1  UNL1       -0.2804
      9 C         141.2492  142.4683  165.0606 C.2     1  UNL1        0.2495
     10 O         140.8482  141.4358  164.0490 O.2     1  UNL1       -0.2698
     11 H         141.7549  144.5624  165.2948 H       1  UNL1        0.1552
     12 C         141.4078  142.0842  166.5019 C.ar    1  UNL1        0.0536
     13 C         142.7465  142.2057  167.1676 C.ar    1  UNL1        0.0045
     14 C         142.9051  141.8216  168.6088 C.ar    1  UNL1        0.0001
     15 C         141.7250  141.3160  169.3845 C.ar    1  UNL1        0.0039
     16 C         140.3863  141.1944  168.7189 C.ar    1  UNL1        0.0716
     17 C         140.2277  141.5785  167.2776 C.ar    1  UNL1        0.0084
     18 C         139.2061  140.6888  169.4945 C.3     1  UNL1        0.4186
     19 F         138.0259  140.1831  170.2700 F       1  UNL1       -0.1659
     20 F         139.1093  139.5066  168.5763 F       1  UNL1       -0.1659
     21 F         139.3029  141.8710  170.4127 F       1  UNL1       -0.1659
     22 C         142.9434  143.4183  159.6635 C.1     1  UNL1       -0.0585
     23 C         143.8279  142.8011  158.6210 C.1     1  UNL1       -0.0386
     24 C         144.7124  142.1838  157.5786 C.ar    1  UNL1        0.1481
     25 N         145.9148  142.8243  156.9508 N.ar    1  UNL1       -0.1595
     26 N         146.4952  141.8539  155.9652 N.ar    1  UNL1       -0.2352
     27 C         145.6517  140.6137  155.9839 C.ar    1  UNL1        0.1659
     28 N         145.7445  139.3251  155.2217 N.ar    1  UNL1       -0.2050
     29 C         144.7355  138.2405  155.4567 C.ar    1  UNL1        0.2014
     30 N         143.6336  138.4443  156.4539 N.ar    1  UNL1       -0.2093
     31 C         143.5408  139.7329  157.2160 C.ar    1  UNL1        0.1322
     32 N         142.4389  139.9368  158.2132 N.pl3   1  UNL1       -0.3424
     33 C         144.5498  140.8176  156.9810 C.ar    1  UNL1        0.0938
     34 H         141.7766  139.2249  158.3674 H       1  UNL1        0.1437
     35 H         142.3780  140.7825  158.7134 H       1  UNL1        0.1437
     36 C         147.7066  142.0834  155.1109 C.3     1  UNL1        0.1096
     37 C         147.5915  142.8792  153.8446 C.3     1  UNL1        0.0418
     38 C         148.8029  143.1087  152.9902 C.3     1  UNL1        0.0741
     39 N         150.1294  142.5424  153.4022 N.3     1  UNL1       -0.2714
     40 C         151.3408  142.7719  152.5479 C.3     1  UNL1        0.0896
     41 C         150.2445  141.7466  154.6684 C.3     1  UNL1        0.0741
     42 C         149.0331  141.5171  155.5228 C.3     1  UNL1        0.0418
@<TRIPOS>BOND
     1     1     2    1
     2     2     3   ar
     3     3     4   ar
     4     4     5   ar
     5     5     8    1
     6     8     9   am
     7     9    10    2
     8     9    12    1
     9    12    13   ar
    10    13    14   ar
    11    14    15   ar
    12    15    16   ar
    13    16    18    1
    14    18    19    1
    15    18    20    1
    16    18    21    1
    17    16    17   ar
    18     5     6   ar
    19     6     7   ar
    20     7    22    1
    21    22    23    3
    22    23    24    1
    23    24    25   ar
    24    25    26   ar
    25    26    36    1
    26    36    37    1
    27    37    38    1
    28    38    39    1
    29    39    40    1
    30    39    41    1
    31    41    42    1
    32    26    27   ar
    33    27    28   ar
    34    28    29   ar
    35    29    30   ar
    36    30    31   ar
    37    31    32    1
    38    31    33   ar
    39     7     2   ar
    40    33    24   ar
    41    17    12   ar
    42    42    36    1
    43    33    27   ar
    44     8    11    1
    45    32    34    1
    46    32    35    1
@<TRIPOS>MOLECULE
*****
 42 46 0 0 0
SMALL
GASTEIGER

@<TRIPOS>ATOM
      1 C         139.8056  141.9094  157.2166 C.3     1  UNL1        0.0317
      2 C         140.1772  140.4778  156.9667 C.ar    1  UNL1       -0.0141
      3 C         140.2353  139.9520  155.5631 C.ar    1  UNL1       -0.0024
      4 C         140.6068  138.5205  155.3131 C.ar    1  UNL1        0.0144
      5 C         140.9204  137.6145  156.4669 C.ar    1  UNL1        0.0511
      6 C         140.8623  138.1403  157.8705 C.ar    1  UNL1        0.0226
      7 C         140.4907  139.5719  158.1204 C.ar    1  UNL1        0.0393
      8 N         141.2919  136.1829  156.2169 N.am    1  UNL1       -0.2804
      9 C         142.7348  135.7945  156.0857 C.2     1  UNL1        0.2495
     10 O         143.8061  136.8377  156.2044 O.2     1  UNL1       -0.2698
     11 H         140.5888  135.4983  156.1391 H       1  UNL1        0.1552
     12 C         143.1064  134.3629  155.8358 C.ar    1  UNL1        0.0536
     13 C         142.7245  133.7035  154.5439 C.ar    1  UNL1        0.0045
     14 C         143.0961  132.2719  154.2940 C.ar    1  UNL1        0.0001
     15 C         143.8496  131.4997  155.3361 C.ar    1  UNL1        0.0039
     16 C         144.2315  132.1591  156.6281 C.ar    1  UNL1        0.0716
     17 C         143.8599  133.5908  156.8779 C.ar    1  UNL1        0.0084
     18 C         144.9850  131.3870  157.6702 C.3     1  UNL1        0.4186
     19 F         145.7385  130.6151  158.7125 F       1  UNL1       -0.1659
     20 F         145.2654  132.6608  158.4111 F       1  UNL1       -0.1659
     21 F         144.7046  130.1132  156.9294 F       1  UNL1       -0.1659
     22 C         140.4326  140.0976  159.5241 C.1     1  UNL1       -0.0585
     23 C         140.3746  140.6233  160.9278 C.1     1  UNL1       -0.0386
     24 C         140.3166  141.1491  162.3314 C.ar    1  UNL1        0.1481
     25 N         141.0980  140.6282  163.5010 N.ar    1  UNL1       -0.1595
     26 N         140.7312  141.4452  164.7043 N.ar    1  UNL1       -0.2352
     27 C         139.7231  142.4711  164.2784 C.ar    1  UNL1        0.1659
     28 N         139.0054  143.5481  165.0365 N.ar    1  UNL1       -0.2050
     29 C         138.0314  144.4422  164.3280 C.ar    1  UNL1        0.2014
     30 N         137.7751  144.2591  162.8614 N.ar    1  UNL1       -0.2093
     31 C         138.4928  143.1820  162.1033 C.ar    1  UNL1        0.1322
     32 N         138.2366  142.9990  160.6368 N.pl3   1  UNL1       -0.3424
     33 C         139.4668  142.2880  162.8118 C.ar    1  UNL1        0.0938
     34 H         137.5973  143.5858  160.1718 H       1  UNL1        0.1437
     35 H         138.7076  142.2920  160.1392 H       1  UNL1        0.1437
     36 C         141.2768  141.2677  166.0903 C.3     1  UNL1        0.1096
     37 C         140.7371  140.1836  166.9756 C.3     1  UNL1        0.0418
     38 C         141.2826  140.0060  168.3615 C.3     1  UNL1        0.0741
     39 N         142.3678  140.9125  168.8622 N.3     1  UNL1       -0.2714
     40 C         142.9134  140.7349  170.2482 C.3     1  UNL1        0.0896
     41 C         142.9075  141.9965  167.9770 C.3     1  UNL1        0.0741
     42 C         142.3619  142.1740  166.5910 C.3     1  UNL1        0.0418
@<TRIPOS>BOND
     1     1     2    1
     2     2     3   ar
     3     3     4   ar
     4     4     5   ar
     5     5     8    1
     6     8     9   am
     7     9    10    2
     8     9    12    1
     9    12    13   ar
    10    13    14   ar
    11    14    15   ar
    12    15    16   ar
    13    16    18    1
    14    18    19    1
    15    18    20    1
    16    18    21    1
    17    16    17   ar
    18     5     6   ar
    19     6     7   ar
    20     7    22    1
    21    22    23    3
    22    23    24    1
    23    24    25   ar
    24    25    26   ar
    25    26    36    1
    26    36    37    1
    27    37    38    1
    28    38    39    1
    29    39    40    1
    30    39    41    1
    31    41    42    1
    32    26    27   ar
    33    27    28   ar
    34    28    29   ar
    35    29    30   ar
    36    30    31   ar
    37    31    32    1
    38    31    33   ar
    39     7     2   ar
    40    33    24   ar
    41    17    12   ar
    42    42    36    1
    43    33    27   ar
    44     8    11    1
    45    32    34    1
    46    32    35    1
@<TRIPOS>MOLECULE
*****
 42 46 0 0 0
SMALL
GASTEIGER

@<TRIPOS>ATOM
      1 C         143.7609  140.9040  158.9435 C.3     1  UNL1        0.0317
      2 C         143.3473  140.9316  160.3851 C.ar    1  UNL1       -0.0141
      3 C         144.0593  140.0708  161.3862 C.ar    1  UNL1       -0.0024
      4 C         143.6458  140.0984  162.8278 C.ar    1  UNL1        0.0144
      5 C         142.5203  140.9868  163.2684 C.ar    1  UNL1        0.0511
      6 C         141.8083  141.8476  162.2673 C.ar    1  UNL1        0.0226
      7 C         142.2219  141.8200  160.8257 C.ar    1  UNL1        0.0393
      8 N         142.1067  141.0144  164.7100 N.am    1  UNL1       -0.2804
      9 C         142.8963  141.8165  165.7015 C.2     1  UNL1        0.2495
     10 O         144.0995  142.5910  165.2514 O.2     1  UNL1       -0.2698
     11 H         141.3170  140.5061  165.0054 H       1  UNL1        0.1552
     12 C         142.4828  141.8441  167.1431 C.ar    1  UNL1        0.0536
     13 C         143.3940  142.4423  168.1735 C.ar    1  UNL1        0.0045
     14 C         142.9805  142.4699  169.6151 C.ar    1  UNL1        0.0001
     15 C         141.6556  141.8994  170.0263 C.ar    1  UNL1        0.0039
     16 C         140.7442  141.3012  168.9960 C.ar    1  UNL1        0.0716
     17 C         141.1579  141.2736  167.5543 C.ar    1  UNL1        0.0084
     18 C         139.4194  140.7306  169.4071 C.3     1  UNL1        0.4186
     19 F         138.0945  140.1599  169.8182 F       1  UNL1       -0.1659
     20 F         139.6335  139.5681  168.4836 F       1  UNL1       -0.1659
     21 F         139.2052  141.8930  170.3306 F       1  UNL1       -0.1659
     22 C         141.5100  142.6807  159.8246 C.1     1  UNL1       -0.0585
     23 C         140.7980  143.5415  158.8234 C.1     1  UNL1       -0.0386
     24 C         140.0861  144.4022  157.8222 C.ar    1  UNL1        0.1481
     25 N         140.2659  145.8808  157.6446 N.ar    1  UNL1       -0.1595
     26 N         139.3603  146.3279  156.5356 N.ar    1  UNL1       -0.2352
     27 C         138.6208  145.1257  156.0278 C.ar    1  UNL1        0.1659
     28 N         137.5969  144.9609  154.9441 N.ar    1  UNL1       -0.2050
     29 C         137.0215  143.6060  154.6556 C.ar    1  UNL1        0.2014
     30 N         137.4701  142.4159  155.4509 N.ar    1  UNL1       -0.2093
     31 C         138.4940  142.5807  156.5346 C.ar    1  UNL1        0.1322
     32 N         138.9425  141.3905  157.3298 N.pl3   1  UNL1       -0.3424
     33 C         139.0693  143.9355  156.8230 C.ar    1  UNL1        0.0938
     34 H         138.5649  140.5013  157.1405 H       1  UNL1        0.1437
     35 H         139.6146  141.4987  158.0411 H       1  UNL1        0.1437
     36 C         139.2190  147.7309  156.0240 C.3     1  UNL1        0.1096
     37 C         138.5128  148.7634  156.8519 C.3     1  UNL1        0.0418
     38 C         138.3715  150.1664  156.3404 C.3     1  UNL1        0.0741
     39 N         138.9363  150.5369  155.0011 N.3     1  UNL1       -0.2714
     40 C         138.7950  151.9399  154.4896 C.3     1  UNL1        0.0896
     41 C         139.6425  149.5044  154.1733 C.3     1  UNL1        0.0741
     42 C         139.7838  148.1014  154.6848 C.3     1  UNL1        0.0418
@<TRIPOS>BOND
     1     1     2    1
     2     2     3   ar
     3     3     4   ar
     4     4     5   ar
     5     5     8    1
     6     8     9   am
     7     9    10    2
     8     9    12    1
     9    12    13   ar
    10    13    14   ar
    11    14    15   ar
    12    15    16   ar
    13    16    18    1
    14    18    19    1
    15    18    20    1
    16    18    21    1
    17    16    17   ar
    18     5     6   ar
    19     6     7   ar
    20     7    22    1
    21    22    23    3
    22    23    24    1
    23    24    25   ar
    24    25    26   ar
    25    26    36    1
    26    36    37    1
    27    37    38    1
    28    38    39    1
    29    39    40    1
    30    39    41    1
    31    41    42    1
    32    26    27   ar
    33    27    28   ar
    34    28    29   ar
    35    29    30   ar
    36    30    31   ar
    37    31    32    1
    38    31    33   ar
    39     7     2   ar
    40    33    24   ar
    41    17    12   ar
    42    42    36    1
    43    33    27   ar
    44     8    11    1
    45    32    34    1
    46    32    35    1
@<TRIPOS>MOLECULE
*****
 42 46 0 0 0
SMALL
GASTEIGER

@<TRIPOS>ATOM
      1 C         142.2539  138.5720  159.6766 C.3     1  UNL1        0.0317
      2 C         142.1131  139.0418  161.0942 C.ar    1  UNL1       -0.0141
      3 C         142.6762  138.2205  162.2159 C.ar    1  UNL1       -0.0024
      4 C         142.5355  138.6902  163.6334 C.ar    1  UNL1        0.0144
      5 C         141.8316  139.9814  163.9293 C.ar    1  UNL1        0.0511
      6 C         141.2685  140.8027  162.8076 C.ar    1  UNL1        0.0226
      7 C         141.4093  140.3329  161.3900 C.ar    1  UNL1        0.0393
      8 N         141.6909  140.4512  165.3469 N.am    1  UNL1       -0.2804
      9 C         140.5194  140.0067  166.1715 C.2     1  UNL1        0.2495
     10 O         139.4886  139.0924  165.5785 O.2     1  UNL1       -0.2698
     11 H         142.3674  141.0513  165.7361 H       1  UNL1        0.1552
     12 C         140.3786  140.4765  167.5890 C.ar    1  UNL1        0.0536
     13 C         139.2270  140.0028  168.4253 C.ar    1  UNL1        0.0045
     14 C         139.0863  140.4726  169.8429 C.ar    1  UNL1        0.0001
     15 C         140.0971  141.4162  170.4242 C.ar    1  UNL1        0.0039
     16 C         141.2487  141.8899  169.5879 C.ar    1  UNL1        0.0716
     17 C         141.3895  141.4201  168.1703 C.ar    1  UNL1        0.0084
     18 C         142.2596  142.8334  170.1691 C.3     1  UNL1        0.4186
     19 F         143.2705  143.7771  170.7503 F       1  UNL1       -0.1659
     20 F         141.2971  143.9709  169.9965 F       1  UNL1       -0.1659
     21 F         143.2222  141.6960  170.3417 F       1  UNL1       -0.1659
     22 C         140.8462  141.1543  160.2683 C.1     1  UNL1       -0.0585
     23 C         140.2831  141.9755  159.1464 C.1     1  UNL1       -0.0386
     24 C         139.7200  142.7969  158.0247 C.ar    1  UNL1        0.1481
     25 N         140.2973  144.0745  157.4913 N.ar    1  UNL1       -0.1595
     26 N         139.4148  144.5519  156.3764 N.ar    1  UNL1       -0.2352
     27 C         138.2921  143.5695  156.2206 C.ar    1  UNL1        0.1659
     28 N         137.1224  143.5224  155.2827 N.ar    1  UNL1       -0.2050
     29 C         136.1414  142.3907  155.3636 C.ar    1  UNL1        0.2014
     30 N         136.3300  141.3059  156.3824 N.ar    1  UNL1       -0.2093
     31 C         137.4997  141.3530  157.3202 C.ar    1  UNL1        0.1322
     32 N         137.6883  140.2683  158.3389 N.pl3   1  UNL1       -0.3424
     33 C         138.4807  142.4848  157.2393 C.ar    1  UNL1        0.0938
     34 H         137.0444  139.5254  158.3920 H       1  UNL1        0.1437
     35 H         138.4560  140.2992  158.9545 H       1  UNL1        0.1437
     36 C         139.6191  145.7939  155.5604 C.3     1  UNL1        0.1096
     37 C         140.4938  145.7556  154.3423 C.3     1  UNL1        0.0418
     38 C         140.6981  146.9975  153.5263 C.3     1  UNL1        0.0741
     39 N         140.0278  148.2778  153.9283 N.3     1  UNL1       -0.2714
     40 C         140.2321  149.5197  153.1123 C.3     1  UNL1        0.0896
     41 C         139.1532  148.3161  155.1463 C.3     1  UNL1        0.0741
     42 C         138.9489  147.0741  155.9623 C.3     1  UNL1        0.0418
@<TRIPOS>BOND
     1     1     2    1
     2     2     3   ar
     3     3     4   ar
     4     4     5   ar
     5     5     8    1
     6     8     9   am
     7     9    10    2
     8     9    12    1
     9    12    13   ar
    10    13    14   ar
    11    14    15   ar
    12    15    16   ar
    13    16    18    1
    14    18    19    1
    15    18    20    1
    16    18    21    1
    17    16    17   ar
    18     5     6   ar
    19     6     7   ar
    20     7    22    1
    21    22    23    3
    22    23    24    1
    23    24    25   ar
    24    25    26   ar
    25    26    36    1
    26    36    37    1
    27    37    38    1
    28    38    39    1
    29    39    40    1
    30    39    41    1
    31    41    42    1
    32    26    27   ar
    33    27    28   ar
    34    28    29   ar
    35    29    30   ar
    36    30    31   ar
    37    31    32    1
    38    31    33   ar
    39     7     2   ar
    40    33    24   ar
    41    17    12   ar
    42    42    36    1
    43    33    27   ar
    44     8    11    1
    45    32    34    1
    46    32    35    1
@<TRIPOS>MOLECULE
*****
 42 46 0 0 0
SMALL
GASTEIGER

@<TRIPOS>ATOM
      1 C         139.7720  143.6114  159.3404 C.3     1  UNL1        0.0317
      2 C         140.1292  143.4906  160.7922 C.ar    1  UNL1       -0.0141
      3 C         139.6558  144.5252  161.7697 C.ar    1  UNL1       -0.0024
      4 C         140.0130  144.4044  163.2215 C.ar    1  UNL1        0.0144
      5 C         140.8437  143.2490  163.6959 C.ar    1  UNL1        0.0511
      6 C         141.3171  142.2144  162.7184 C.ar    1  UNL1        0.0226
      7 C         140.9599  142.3352  161.2666 C.ar    1  UNL1        0.0393
      8 N         141.2009  143.1282  165.1477 N.am    1  UNL1       -0.2804
      9 C         140.3368  142.3178  166.0678 C.2     1  UNL1        0.2495
     10 O         139.1154  141.6282  165.5360 O.2     1  UNL1       -0.2698
     11 H         142.0026  143.5808  165.4967 H       1  UNL1        0.1552
     12 C         140.6941  142.1970  167.5196 C.ar    1  UNL1        0.0536
     13 C         140.3780  143.3173  168.4655 C.ar    1  UNL1        0.0045
     14 C         140.7352  143.1965  169.9173 C.ar    1  UNL1        0.0001
     15 C         141.4086  141.9553  170.4233 C.ar    1  UNL1        0.0039
     16 C         141.7247  140.8349  169.4774 C.ar    1  UNL1        0.0716
     17 C         141.3674  140.9558  168.0255 C.ar    1  UNL1        0.0084
     18 C         142.3980  139.5937  169.9832 C.3     1  UNL1        0.4186
     19 F         143.0714  138.3524  170.4891 F       1  UNL1       -0.1659
     20 F         142.4293  140.1742  171.3660 F       1  UNL1       -0.1659
     21 F         142.3668  139.0131  168.6004 F       1  UNL1       -0.1659
     22 C         141.4333  141.3006  160.2891 C.1     1  UNL1       -0.0585
     23 C         141.9068  140.2660  159.3117 C.1     1  UNL1       -0.0386
     24 C         142.3802  139.2314  158.3342 C.ar    1  UNL1        0.1481
     25 N         141.9166  137.8065  158.2647 N.ar    1  UNL1       -0.1595
     26 N         142.6502  137.1346  157.1421 N.ar    1  UNL1       -0.2352
     27 C         143.5673  138.1441  156.5178 C.ar    1  UNL1        0.1659
     28 N         144.5327  138.0508  155.3736 N.ar    1  UNL1       -0.2050
     29 C         145.3313  139.2534  154.9661 C.ar    1  UNL1        0.2014
     30 N         145.1644  140.5493  155.7029 N.ar    1  UNL1       -0.2093
     31 C         144.1990  140.6426  156.8470 C.ar    1  UNL1        0.1322
     32 N         144.0321  141.9385  157.5838 N.pl3   1  UNL1       -0.3424
     33 C         143.4004  139.4400  157.2545 C.ar    1  UNL1        0.0938
     34 H         144.5562  142.7278  157.3163 H       1  UNL1        0.1437
     35 H         143.3984  141.9998  158.3347 H       1  UNL1        0.1437
     36 C         142.4942  135.7042  156.7183 C.3     1  UNL1        0.1096
     37 C         141.5745  135.3534  155.5863 C.3     1  UNL1        0.0418
     38 C         141.4185  133.9230  155.1625 C.3     1  UNL1        0.0741
     39 N         142.1822  132.8434  155.8705 N.3     1  UNL1       -0.2714
     40 C         142.0262  131.4130  155.4466 C.3     1  UNL1        0.0896
     41 C         143.1018  133.1942  157.0024 C.3     1  UNL1        0.0741
     42 C         143.2578  134.6246  157.4262 C.3     1  UNL1        0.0418
@<TRIPOS>BOND
     1     1     2    1
     2     2     3   ar
     3     3     4   ar
     4     4     5   ar
     5     5     8    1
     6     8     9   am
     7     9    10    2
     8     9    12    1
     9    12    13   ar
    10    13    14   ar
    11    14    15   ar
    12    15    16   ar
    13    16    18    1
    14    18    19    1
    15    18    20    1
    16    18    21    1
    17    16    17   ar
    18     5     6   ar
    19     6     7   ar
    20     7    22    1
    21    22    23    3
    22    23    24    1
    23    24    25   ar
    24    25    26   ar
    25    26    36    1
    26    36    37    1
    27    37    38    1
    28    38    39    1
    29    39    40    1
    30    39    41    1
    31    41    42    1
    32    26    27   ar
    33    27    28   ar
    34    28    29   ar
    35    29    30   ar
    36    30    31   ar
    37    31    32    1
    38    31    33   ar
    39     7     2   ar
    40    33    24   ar
    41    17    12   ar
    42    42    36    1
    43    33    27   ar
    44     8    11    1
    45    32    34    1
    46    32    35    1
@<TRIPOS>MOLECULE
*****
 42 46 0 0 0
SMALL
GASTEIGER

@<TRIPOS>ATOM
      1 C         143.8034  140.8267  158.4968 C.3     1  UNL1        0.0317
      2 C         143.2467  140.5994  159.8710 C.ar    1  UNL1       -0.0141
      3 C         143.9302  139.6497  160.8095 C.ar    1  UNL1       -0.0024
      4 C         143.3736  139.4224  162.1837 C.ar    1  UNL1        0.0144
      5 C         142.1333  140.1450  162.6195 C.ar    1  UNL1        0.0511
      6 C         141.4499  141.0947  161.6810 C.ar    1  UNL1        0.0226
      7 C         142.0065  141.3220  160.3068 C.ar    1  UNL1        0.0393
      8 N         141.5767  139.9177  163.9938 N.am    1  UNL1       -0.2804
      9 C         142.1438  140.6631  165.1654 C.2     1  UNL1        0.2495
     10 O         143.2676  141.6358  164.9628 O.2     1  UNL1       -0.2698
     11 H         140.8391  139.2794  164.1267 H       1  UNL1        0.1552
     12 C         141.5871  140.4359  166.5396 C.ar    1  UNL1        0.0536
     13 C         140.1072  140.5133  166.7716 C.ar    1  UNL1        0.0045
     14 C         139.5505  140.2860  168.1458 C.ar    1  UNL1        0.0001
     15 C         140.4738  139.9815  169.2881 C.ar    1  UNL1        0.0039
     16 C         141.9537  139.9041  169.0562 C.ar    1  UNL1        0.0716
     17 C         142.5104  140.1314  167.6819 C.ar    1  UNL1        0.0084
     18 C         142.8770  139.5996  170.1984 C.3     1  UNL1        0.4186
     19 F         143.8004  139.2952  171.3406 F       1  UNL1       -0.1659
     20 F         143.0132  141.0668  170.4794 F       1  UNL1       -0.1659
     21 F         142.7409  138.1324  169.9174 F       1  UNL1       -0.1659
     22 C         141.3231  142.2717  159.3683 C.1     1  UNL1       -0.0585
     23 C         140.6396  143.2215  158.4298 C.1     1  UNL1       -0.0386
     24 C         139.9562  144.1713  157.4913 C.ar    1  UNL1        0.1481
     25 N         140.1587  145.6566  157.4377 N.ar    1  UNL1       -0.1595
     26 N         139.2779  146.2058  156.3549 N.ar    1  UNL1       -0.2352
     27 C         138.5309  145.0599  155.7392 C.ar    1  UNL1        0.1659
     28 N         137.5232  144.9990  154.6299 N.ar    1  UNL1       -0.2050
     29 C         136.9347  143.6807  154.2228 C.ar    1  UNL1        0.2014
     30 N         137.3539  142.4233  154.9252 N.ar    1  UNL1       -0.2093
     31 C         138.3616  142.4842  156.0345 C.ar    1  UNL1        0.1322
     32 N         138.7808  141.2269  156.7369 N.pl3   1  UNL1       -0.3424
     33 C         138.9501  143.8025  156.4416 C.ar    1  UNL1        0.0938
     34 H         138.3946  140.3616  156.4697 H       1  UNL1        0.1437
     35 H         139.4423  141.2668  157.4650 H       1  UNL1        0.1437
     36 C         139.1639  147.6477  155.9575 C.3     1  UNL1        0.1096
     37 C         139.7043  148.1062  154.6353 C.3     1  UNL1        0.0418
     38 C         139.5904  149.5481  154.2379 C.3     1  UNL1        0.0741
     39 N         138.9361  150.5315  155.1625 N.3     1  UNL1       -0.2714
     40 C         138.8222  151.9734  154.7651 C.3     1  UNL1        0.0896
     41 C         138.3958  150.0730  156.4845 C.3     1  UNL1        0.0741
     42 C         138.5098  148.6311  156.8820 C.3     1  UNL1        0.0418
@<TRIPOS>BOND
     1     1     2    1
     2     2     3   ar
     3     3     4   ar
     4     4     5   ar
     5     5     8    1
     6     8     9   am
     7     9    10    2
     8     9    12    1
     9    12    13   ar
    10    13    14   ar
    11    14    15   ar
    12    15    16   ar
    13    16    18    1
    14    18    19    1
    15    18    20    1
    16    18    21    1
    17    16    17   ar
    18     5     6   ar
    19     6     7   ar
    20     7    22    1
    21    22    23    3
    22    23    24    1
    23    24    25   ar
    24    25    26   ar
    25    26    36    1
    26    36    37    1
    27    37    38    1
    28    38    39    1
    29    39    40    1
    30    39    41    1
    31    41    42    1
    32    26    27   ar
    33    27    28   ar
    34    28    29   ar
    35    29    30   ar
    36    30    31   ar
    37    31    32    1
    38    31    33   ar
    39     7     2   ar
    40    33    24   ar
    41    17    12   ar
    42    42    36    1
    43    33    27   ar
    44     8    11    1
    45    32    34    1
    46    32    35    1
