@<TRIPOS>MOLECULE
*****
 36 40 0 0 0
SMALL
GASTEIGER

@<TRIPOS>ATOM
      1 C         140.6066  143.4237  162.0882 C.2     1  UNL1        0.4243
      2 N         141.5036  142.3360  162.6003 N.2     1  UNL1        0.0275
      3 C         141.5537  142.0344  164.0688 C.2     1  UNL1        0.3996
      4 N         142.3354  141.0287  164.8608 N.2     1  UNL1        0.0831
      5 N         141.9716  141.1932  166.3067 N.2     1  UNL1       -0.0309
      6 C         140.9650  142.3006  166.4082 C.2     1  UNL1        0.1568
      7 C         140.7067  142.8205  165.0252 C.3     1  UNL1        0.2565
      8 C         139.8097  143.9082  164.5130 C.2     1  UNL1        0.3060
      9 O         138.9627  144.6943  165.4694 O.2     1  UNL1       -0.2554
     10 N         139.7596  144.2098  163.0445 N.am    1  UNL1       -0.1358
     11 C         138.8626  145.2975  162.5324 C.3     1  UNL1        0.2167
     12 C         141.5373  146.1283  154.4181 C.3     1  UNL1        0.0335
     13 C         140.9302  145.2944  155.5070 C.3     1  UNL1        0.1294
     14 O         139.8283  144.2907  155.3384 O.3     1  UNL1       -0.3548
     15 C         139.5354  143.6937  156.6831 C.3     1  UNL1        0.1435
     16 C         140.4563  144.3284  157.6826 C.3     1  UNL1        0.0490
     17 C         139.5271  143.3084  158.2709 C.3     1  UNL1        0.0444
     18 C         139.5772  143.0069  159.7394 C.3     1  UNL1        0.1682
     19 N         140.5565  143.7253  160.6196 N.pl3   1  UNL1       -0.1900
     20 C         141.4857  144.7453  160.0313 C.3     1  UNL1        0.1682
     21 C         141.4356  145.0469  158.5628 C.3     1  UNL1        0.0444
     22 C         141.3183  145.3178  156.9557 C.3     1  UNL1        0.0808
     23 N         142.3817  146.1791  157.5699 N.3     1  UNL1       -0.3202
     24 H         142.4350  145.9916  158.5711 H       1  UNL1        0.1189
     25 H         142.1523  147.1615  157.4197 H       1  UNL1        0.1189
     26 S         140.3285  142.8003  167.6712 S.3     1  UNL1       -0.0665
     27 C         140.7600  142.2489  168.9978 C.ar    1  UNL1        0.0455
     28 C         141.8567  142.9218  169.7687 C.ar    1  UNL1        0.0281
     29 C         142.2884  142.3705  171.0952 C.ar    1  UNL1        0.1009
     30 N         141.6232  141.1462  171.6508 N.ar    1  UNL1       -0.2287
     31 C         140.5265  140.4732  170.8798 C.ar    1  UNL1        0.1365
     32 N         139.8614  139.2489  171.4354 N.pl3   1  UNL1       -0.3419
     33 C         140.0949  141.0246  169.5533 C.ar    1  UNL1        0.0947
     34 CL        138.9982  140.3517  168.7823 Cl      1  UNL1       -0.0788
     35 H         140.1447  138.8870  172.3061 H       1  UNL1        0.1437
     36 H         139.1416  138.8072  170.9295 H       1  UNL1        0.1437
@<TRIPOS>BOND
     1    13    12    1
     2    13    14    1
     3    14    15    1
     4    15    16    1
     5    16    17    1
     6    17    18    1
     7    18    19    1
     8    19     1    1
     9     1     2    2
    10     2     3    1
    11     3     4    2
    12     4     5    1
    13     5     6    2
    14     6    26    1
    15    26    27    1
    16    27    28   ar
    17    28    29   ar
    18    29    30   ar
    19    30    31   ar
    20    31    32    1
    21    31    33   ar
    22    33    34    1
    23     6     7    1
    24     7     8    1
    25     8     9    2
    26     8    10   am
    27    10    11    1
    28    19    20    1
    29    20    21    1
    30    16    22    1
    31    22    23    1
    32    22    13    1
    33    21    16    1
    34    10     1    1
    35     7     3    1
    36    33    27   ar
    37    32    35    1
    38    32    36    1
    39    23    24    1
    40    23    25    1
@<TRIPOS>MOLECULE
*****
 36 40 0 0 0
SMALL
GASTEIGER

@<TRIPOS>ATOM
      1 C         139.3199  140.6082  162.3479 C.2     1  UNL1        0.4243
      2 N         138.2918  139.9972  163.2531 N.2     1  UNL1        0.0275
      3 C         138.6067  139.7735  164.7026 C.2     1  UNL1        0.3996
      4 N         137.8001  139.1956  165.8274 N.2     1  UNL1        0.0831
      5 N         138.6446  139.2257  167.0667 N.2     1  UNL1       -0.0309
      6 C         139.9732  139.8224  166.7077 C.2     1  UNL1        0.1568
      7 C         139.9498  140.1610  165.2467 C.3     1  UNL1        0.2565
      8 C         140.9779  140.7720  164.3414 C.2     1  UNL1        0.3060
      9 O         142.3210  141.1594  164.8855 O.2     1  UNL1       -0.2554
     10 N         140.6630  140.9956  162.8920 N.am    1  UNL1       -0.1358
     11 C         141.6911  141.6067  161.9866 C.3     1  UNL1        0.2167
     12 C         138.0743  140.2682  154.2643 C.3     1  UNL1        0.0335
     13 C         138.0921  140.9173  155.6164 C.3     1  UNL1        0.1294
     14 O         137.6889  142.3295  155.9219 O.3     1  UNL1       -0.3548
     15 C         137.8639  142.5531  157.3948 C.3     1  UNL1        0.1435
     16 C         138.3752  141.2792  157.9996 C.3     1  UNL1        0.0490
     17 C         138.1835  142.3903  158.9889 C.3     1  UNL1        0.0444
     18 C         138.4984  142.1666  160.4383 C.3     1  UNL1        0.1682
     19 N         139.0050  140.8318  160.8984 N.pl3   1  UNL1       -0.1900
     20 C         139.1967  139.7208  159.9091 C.3     1  UNL1        0.1682
     21 C         138.8818  139.9444  158.4598 C.3     1  UNL1        0.0444
     22 C         138.5162  140.2682  156.9005 C.3     1  UNL1        0.0808
     23 N         138.9970  138.8561  157.0579 N.3     1  UNL1       -0.3202
     24 H         139.2181  138.6795  158.0378 H       1  UNL1        0.1189
     25 H         139.8328  138.7162  156.4902 H       1  UNL1        0.1189
     26 S         141.1233  140.0419  167.6454 S.3     1  UNL1       -0.0665
     27 C         140.9072  140.7669  168.9406 C.ar    1  UNL1        0.0455
     28 C         140.9838  140.0207  170.2396 C.ar    1  UNL1        0.0281
     29 C         140.7677  140.7456  171.5349 C.ar    1  UNL1        0.1009
     30 N         140.4751  142.2168  171.5312 N.ar    1  UNL1       -0.2287
     31 C         140.3985  142.9630  170.2322 C.ar    1  UNL1        0.1365
     32 N         140.1059  144.4342  170.2286 N.pl3   1  UNL1       -0.3419
     33 C         140.6146  142.2381  168.9369 C.ar    1  UNL1        0.0947
     34 CL        140.5380  142.9843  167.6380 Cl      1  UNL1       -0.0788
     35 H         139.9641  144.9100  171.0787 H       1  UNL1        0.1437
     36 H         140.0556  144.9240  169.3760 H       1  UNL1        0.1437
@<TRIPOS>BOND
     1    13    12    1
     2    13    14    1
     3    14    15    1
     4    15    16    1
     5    16    17    1
     6    17    18    1
     7    18    19    1
     8    19     1    1
     9     1     2    2
    10     2     3    1
    11     3     4    2
    12     4     5    1
    13     5     6    2
    14     6    26    1
    15    26    27    1
    16    27    28   ar
    17    28    29   ar
    18    29    30   ar
    19    30    31   ar
    20    31    32    1
    21    31    33   ar
    22    33    34    1
    23     6     7    1
    24     7     8    1
    25     8     9    2
    26     8    10   am
    27    10    11    1
    28    19    20    1
    29    20    21    1
    30    16    22    1
    31    22    23    1
    32    22    13    1
    33    21    16    1
    34    10     1    1
    35     7     3    1
    36    33    27   ar
    37    32    35    1
    38    32    36    1
    39    23    24    1
    40    23    25    1
@<TRIPOS>MOLECULE
*****
 36 40 0 0 0
SMALL
GASTEIGER

@<TRIPOS>ATOM
      1 C         142.8132  140.6346  162.4554 C.2     1  UNL1        0.4243
      2 N         143.6448  139.8863  163.4547 N.2     1  UNL1        0.0275
      3 C         143.1224  139.6545  164.8416 C.2     1  UNL1        0.3996
      4 N         143.7105  138.9568  166.0320 N.2     1  UNL1        0.0831
      5 N         142.7201  139.0420  167.1554 N.2     1  UNL1       -0.0309
      6 C         141.5198  139.7925  166.6591 C.2     1  UNL1        0.1568
      7 C         141.7685  140.1710  165.2292 C.3     1  UNL1        0.2565
      8 C         140.9370  140.9193  164.2298 C.2     1  UNL1        0.3060
      9 O         139.5831  141.4358  164.6173 O.2     1  UNL1       -0.2554
     10 N         141.4593  141.1511  162.8430 N.am    1  UNL1       -0.1358
     11 C         140.6278  141.8994  161.8436 C.3     1  UNL1        0.2167
     12 C         145.0412  140.4137  154.5815 C.3     1  UNL1        0.0335
     13 C         144.9242  141.0154  155.9505 C.3     1  UNL1        0.1294
     14 O         145.4442  142.3582  156.3708 O.3     1  UNL1       -0.3548
     15 C         145.1081  142.5526  157.8197 C.3     1  UNL1        0.1435
     16 C         144.3804  141.3300  158.2948 C.3     1  UNL1        0.0490
     17 C         144.5695  142.3770  159.3522 C.3     1  UNL1        0.0444
     18 C         144.0471  142.1451  160.7391 C.3     1  UNL1        0.1682
     19 N         143.3356  140.8664  161.0685 N.pl3   1  UNL1       -0.1900
     20 C         143.1465  139.8194  160.0111 C.3     1  UNL1        0.1682
     21 C         143.6689  140.0513  158.6243 C.3     1  UNL1        0.0444
     22 C         144.2667  140.3800  157.1396 C.3     1  UNL1        0.0808
     23 N         143.6108  139.0314  157.1684 N.3     1  UNL1       -0.3202
     24 H         143.2466  138.8504  158.1039 H       1  UNL1        0.1189
     25 H         144.2952  138.3151  156.9256 H       1  UNL1        0.1189
     26 S         140.2874  140.1088  167.4534 S.3     1  UNL1       -0.0665
     27 C         140.4062  140.8031  168.7777 C.ar    1  UNL1        0.0455
     28 C         140.5918  140.0006  170.0313 C.ar    1  UNL1        0.0281
     29 C         140.7106  140.6948  171.3556 C.ar    1  UNL1        0.1009
     30 N         140.6439  142.1917  171.4263 N.ar    1  UNL1       -0.2287
     31 C         140.4583  142.9942  170.1728 C.ar    1  UNL1        0.1365
     32 N         140.3915  144.4911  170.2436 N.pl3   1  UNL1       -0.3419
     33 C         140.3394  142.3000  168.8484 C.ar    1  UNL1        0.0947
     34 CL        140.1538  143.1025  167.5949 Cl      1  UNL1       -0.0788
     35 H         140.4695  144.9467  171.1128 H       1  UNL1        0.1437
     36 H         140.2697  145.0178  169.4208 H       1  UNL1        0.1437
@<TRIPOS>BOND
     1    13    12    1
     2    13    14    1
     3    14    15    1
     4    15    16    1
     5    16    17    1
     6    17    18    1
     7    18    19    1
     8    19     1    1
     9     1     2    2
    10     2     3    1
    11     3     4    2
    12     4     5    1
    13     5     6    2
    14     6    26    1
    15    26    27    1
    16    27    28   ar
    17    28    29   ar
    18    29    30   ar
    19    30    31   ar
    20    31    32    1
    21    31    33   ar
    22    33    34    1
    23     6     7    1
    24     7     8    1
    25     8     9    2
    26     8    10   am
    27    10    11    1
    28    19    20    1
    29    20    21    1
    30    16    22    1
    31    22    23    1
    32    22    13    1
    33    21    16    1
    34    10     1    1
    35     7     3    1
    36    33    27   ar
    37    32    35    1
    38    32    36    1
    39    23    24    1
    40    23    25    1
@<TRIPOS>MOLECULE
*****
 36 40 0 0 0
SMALL
GASTEIGER

@<TRIPOS>ATOM
      1 C         142.1892  142.9544  162.3475 C.2     1  UNL1        0.4243
      2 N         143.0221  143.6461  163.3855 N.2     1  UNL1        0.0275
      3 C         143.1549  143.0540  164.7573 C.2     1  UNL1        0.3996
      4 N         143.9015  143.5054  165.9774 N.2     1  UNL1        0.0831
      5 N         143.6628  142.5005  167.0652 N.2     1  UNL1       -0.0309
      6 C         142.7685  141.4281  166.5173 C.2     1  UNL1        0.1568
      7 C         142.4547  141.7701  165.0910 C.3     1  UNL1        0.2565
      8 C         141.6217  141.0784  164.0529 C.2     1  UNL1        0.3060
      9 O         140.9214  139.7945  164.3866 O.2     1  UNL1       -0.2554
     10 N         141.4889  141.6705  162.6811 N.am    1  UNL1       -0.1358
     11 C         140.6559  140.9787  161.6430 C.3     1  UNL1        0.2167
     12 C         142.6751  145.1487  154.4760 C.3     1  UNL1        0.0335
     13 C         142.1363  145.1950  155.8750 C.3     1  UNL1        0.1294
     14 O         141.0367  146.0888  156.3672 O.3     1  UNL1       -0.3548
     15 C         140.8232  145.8018  157.8240 C.3     1  UNL1        0.1435
     16 C         141.7908  144.7307  158.2321 C.3     1  UNL1        0.0490
     17 C         140.9050  145.2087  159.3443 C.3     1  UNL1        0.0444
     18 C         141.0378  144.6165  160.7160 C.3     1  UNL1        0.1682
     19 N         142.0564  143.5465  160.9756 N.pl3   1  UNL1       -0.1900
     20 C         142.9422  143.0685  159.8635 C.3     1  UNL1        0.1682
     21 C         142.8094  143.6607  158.4918 C.3     1  UNL1        0.0444
     22 C         142.6023  144.3557  157.0276 C.3     1  UNL1        0.0808
     23 N         143.6891  143.3228  156.9834 N.3     1  UNL1       -0.3202
     24 H         143.7985  142.9047  157.9073 H       1  UNL1        0.1189
     25 H         144.5655  143.7631  156.7035 H       1  UNL1        0.1189
     26 S         142.2749  140.2248  167.2647 S.3     1  UNL1       -0.0665
     27 C         141.6587  140.3860  168.6227 C.ar    1  UNL1        0.0455
     28 C         142.5092  140.7958  169.7883 C.ar    1  UNL1        0.0281
     29 C         141.8931  140.9571  171.1464 C.ar    1  UNL1        0.1009
     30 N         140.4264  140.7085  171.3388 N.ar    1  UNL1       -0.2287
     31 C         139.5759  140.2987  170.1732 C.ar    1  UNL1        0.1365
     32 N         138.1091  140.0502  170.3657 N.pl3   1  UNL1       -0.3419
     33 C         140.1920  140.1375  168.8151 C.ar    1  UNL1        0.0947
     34 CL        139.3415  139.7277  167.6495 Cl      1  UNL1       -0.0788
     35 H         137.7048  140.1560  171.2570 H       1  UNL1        0.1437
     36 H         137.5509  139.7812  169.6007 H       1  UNL1        0.1437
@<TRIPOS>BOND
     1    13    12    1
     2    13    14    1
     3    14    15    1
     4    15    16    1
     5    16    17    1
     6    17    18    1
     7    18    19    1
     8    19     1    1
     9     1     2    2
    10     2     3    1
    11     3     4    2
    12     4     5    1
    13     5     6    2
    14     6    26    1
    15    26    27    1
    16    27    28   ar
    17    28    29   ar
    18    29    30   ar
    19    30    31   ar
    20    31    32    1
    21    31    33   ar
    22    33    34    1
    23     6     7    1
    24     7     8    1
    25     8     9    2
    26     8    10   am
    27    10    11    1
    28    19    20    1
    29    20    21    1
    30    16    22    1
    31    22    23    1
    32    22    13    1
    33    21    16    1
    34    10     1    1
    35     7     3    1
    36    33    27   ar
    37    32    35    1
    38    32    36    1
    39    23    24    1
    40    23    25    1
@<TRIPOS>MOLECULE
*****
 36 40 0 0 0
SMALL
GASTEIGER

@<TRIPOS>ATOM
      1 C         141.6512  143.6714  161.4016 C.2     1  UNL1        0.4243
      2 N         142.8585  143.9426  162.2493 N.2     1  UNL1        0.0275
      3 C         142.9026  143.4588  163.6685 C.2     1  UNL1        0.3996
      4 N         143.9491  143.5755  164.7366 N.2     1  UNL1        0.0831
      5 N         143.4327  142.8924  165.9682 N.2     1  UNL1       -0.0309
      6 C         142.0669  142.3537  165.6611 C.2     1  UNL1        0.1568
      7 C         141.7393  142.7037  164.2399 C.3     1  UNL1        0.2565
      8 C         140.5319  142.4324  163.3921 C.2     1  UNL1        0.3060
      9 O         139.3685  141.6773  163.9635 O.2     1  UNL1       -0.2554
     10 N         140.4879  142.9163  161.9730 N.am    1  UNL1       -0.1358
     11 C         139.2805  142.6450  161.1252 C.3     1  UNL1        0.2167
     12 C         140.2648  147.3419  154.2172 C.3     1  UNL1        0.0335
     13 C         140.9223  146.3652  155.1464 C.3     1  UNL1        0.1294
     14 O         141.9804  145.3693  154.7740 O.3     1  UNL1       -0.3548
     15 C         142.3493  144.6014  156.0087 C.3     1  UNL1        0.1435
     16 C         141.5191  145.1227  157.1441 C.3     1  UNL1        0.0490
     17 C         142.4575  144.0184  157.5312 C.3     1  UNL1        0.0444
     18 C         142.5015  143.5346  158.9504 C.3     1  UNL1        0.1682
     19 N         141.6072  144.1552  159.9824 N.pl3   1  UNL1       -0.1900
     20 C         140.6688  145.2595  159.5953 C.3     1  UNL1        0.1682
     21 C         140.6248  145.7433  158.1761 C.3     1  UNL1        0.0444
     22 C         140.6372  146.2128  156.6111 C.3     1  UNL1        0.0808
     23 N         139.6446  147.0104  157.4038 N.3     1  UNL1       -0.3202
     24 H         139.6560  146.6989  158.3750 H       1  UNL1        0.1189
     25 H         138.7115  146.8755  157.0145 H       1  UNL1        0.1189
     26 S         141.1837  141.5976  166.6091 S.3     1  UNL1       -0.0665
     27 C         141.1968  141.9284  168.0721 C.ar    1  UNL1        0.0455
     28 C         140.4903  143.1542  168.5702 C.ar    1  UNL1        0.0281
     29 C         140.5033  143.4851  170.0331 C.ar    1  UNL1        0.1009
     30 N         141.2230  142.5901  170.9980 N.ar    1  UNL1       -0.2287
     31 C         141.9295  141.3642  170.4999 C.ar    1  UNL1        0.1365
     32 N         142.6492  140.4693  171.4649 N.pl3   1  UNL1       -0.3419
     33 C         141.9165  141.0334  169.0370 C.ar    1  UNL1        0.0947
     34 CL        142.6231  139.8076  168.5389 Cl      1  UNL1       -0.0788
     35 H         142.6578  140.6864  172.4251 H       1  UNL1        0.1437
     36 H         143.1130  139.6647  171.1380 H       1  UNL1        0.1437
@<TRIPOS>BOND
     1    13    12    1
     2    13    14    1
     3    14    15    1
     4    15    16    1
     5    16    17    1
     6    17    18    1
     7    18    19    1
     8    19     1    1
     9     1     2    2
    10     2     3    1
    11     3     4    2
    12     4     5    1
    13     5     6    2
    14     6    26    1
    15    26    27    1
    16    27    28   ar
    17    28    29   ar
    18    29    30   ar
    19    30    31   ar
    20    31    32    1
    21    31    33   ar
    22    33    34    1
    23     6     7    1
    24     7     8    1
    25     8     9    2
    26     8    10   am
    27    10    11    1
    28    19    20    1
    29    20    21    1
    30    16    22    1
    31    22    23    1
    32    22    13    1
    33    21    16    1
    34    10     1    1
    35     7     3    1
    36    33    27   ar
    37    32    35    1
    38    32    36    1
    39    23    24    1
    40    23    25    1
@<TRIPOS>MOLECULE
*****
 36 40 0 0 0
SMALL
GASTEIGER

@<TRIPOS>ATOM
      1 C         142.9084  142.0306  161.1901 C.2     1  UNL1        0.4243
      2 N         141.6980  142.9152  161.2384 N.2     1  UNL1        0.0275
      3 C         141.0279  143.1984  162.5503 C.2     1  UNL1        0.3996
      4 N         139.8284  144.0254  162.9066 N.2     1  UNL1        0.0831
      5 N         139.6273  143.9352  164.3903 N.2     1  UNL1       -0.0309
      6 C         140.7027  143.0523  164.9509 C.2     1  UNL1        0.1568
      7 C         141.5682  142.5970  163.8137 C.3     1  UNL1        0.2565
      8 C         142.7787  141.7123  163.7654 C.2     1  UNL1        0.3060
      9 O         143.3190  141.1109  165.0288 O.2     1  UNL1       -0.2554
     10 N         143.4487  141.4292  162.4536 N.am    1  UNL1       -0.1358
     11 C         144.6592  140.5445  162.4052 C.3     1  UNL1        0.2167
     12 C         147.4946  141.7808  154.4140 C.3     1  UNL1        0.0335
     13 C         146.4107  141.3265  155.3460 C.3     1  UNL1        0.1294
     14 O         145.4890  140.1636  155.1262 O.3     1  UNL1       -0.3548
     15 C         144.5669  140.0736  156.3060 C.3     1  UNL1        0.1435
     16 C         144.9187  141.1809  157.2548 C.3     1  UNL1        0.0490
     17 C         143.7854  140.3155  157.7204 C.3     1  UNL1        0.0444
     18 C         143.1154  140.5987  159.0321 C.3     1  UNL1        0.1682
     19 N         143.5785  141.7474  159.8783 N.pl3   1  UNL1       -0.1900
     20 C         144.7118  142.6128  159.4128 C.3     1  UNL1        0.1682
     21 C         145.3818  142.3295  158.1010 C.3     1  UNL1        0.0444
     22 C         146.0583  141.9552  156.6615 C.3     1  UNL1        0.0808
     23 N         146.7277  143.1486  157.2759 N.3     1  UNL1       -0.3202
     24 H         146.2883  143.3614  158.1714 H       1  UNL1        0.1189
     25 H         146.6335  143.9500  156.6520 H       1  UNL1        0.1189
     26 S         140.8810  142.6887  166.3952 S.3     1  UNL1       -0.0665
     27 C         140.1150  141.5390  166.9794 C.ar    1  UNL1        0.0455
     28 C         139.3774  140.5939  166.0778 C.ar    1  UNL1        0.0281
     29 C         138.6114  139.4441  166.6619 C.ar    1  UNL1        0.1009
     30 N         138.5829  139.2395  168.1476 N.ar    1  UNL1       -0.2287
     31 C         139.3204  140.1845  169.0491 C.ar    1  UNL1        0.1365
     32 N         139.2919  139.9798  170.5349 N.pl3   1  UNL1       -0.3419
     33 C         140.0865  141.3343  168.4651 C.ar    1  UNL1        0.0947
     34 CL        140.8240  142.2794  169.3667 Cl      1  UNL1       -0.0788
     35 H         138.7891  139.2252  170.9182 H       1  UNL1        0.1437
     36 H         139.7760  140.6001  171.1266 H       1  UNL1        0.1437
@<TRIPOS>BOND
     1    13    12    1
     2    13    14    1
     3    14    15    1
     4    15    16    1
     5    16    17    1
     6    17    18    1
     7    18    19    1
     8    19     1    1
     9     1     2    2
    10     2     3    1
    11     3     4    2
    12     4     5    1
    13     5     6    2
    14     6    26    1
    15    26    27    1
    16    27    28   ar
    17    28    29   ar
    18    29    30   ar
    19    30    31   ar
    20    31    32    1
    21    31    33   ar
    22    33    34    1
    23     6     7    1
    24     7     8    1
    25     8     9    2
    26     8    10   am
    27    10    11    1
    28    19    20    1
    29    20    21    1
    30    16    22    1
    31    22    23    1
    32    22    13    1
    33    21    16    1
    34    10     1    1
    35     7     3    1
    36    33    27   ar
    37    32    35    1
    38    32    36    1
    39    23    24    1
    40    23    25    1
@<TRIPOS>MOLECULE
*****
 36 40 0 0 0
SMALL
GASTEIGER

@<TRIPOS>ATOM
      1 C         141.0500  141.7385  162.8085 C.2     1  UNL1        0.4243
      2 N         142.2196  140.8085  162.9392 N.2     1  UNL1        0.0275
      3 C         142.5039  140.1409  164.2521 C.2     1  UNL1        0.3996
      4 N         143.5758  139.1826  164.6794 N.2     1  UNL1        0.0831
      5 N         143.3530  138.8528  166.1257 N.2     1  UNL1       -0.0309
      6 C         142.1434  139.6073  166.5921 C.2     1  UNL1        0.1568
      7 C         141.6186  140.4034  165.4342 C.3     1  UNL1        0.2565
      8 C         140.4490  141.3334  165.3034 C.2     1  UNL1        0.3060
      9 O         139.5637  141.5959  166.4855 O.2     1  UNL1       -0.2554
     10 N         140.1647  142.0009  163.9906 N.am    1  UNL1       -0.1358
     11 C         138.9951  142.9310  163.8598 C.3     1  UNL1        0.2167
     12 C         140.6002  146.4839  156.1534 C.3     1  UNL1        0.0335
     13 C         140.2516  145.3087  157.0178 C.3     1  UNL1        0.1294
     14 O         139.2672  144.2280  156.6815 O.3     1  UNL1       -0.3548
     15 C         139.2334  143.2592  157.8263 C.3     1  UNL1        0.1435
     16 C         140.1970  143.7411  158.8700 C.3     1  UNL1        0.0490
     17 C         139.4866  142.4714  159.2352 C.3     1  UNL1        0.0444
     18 C         139.7710  141.8039  160.5480 C.3     1  UNL1        0.1682
     19 N         140.7657  142.4061  161.4956 N.pl3   1  UNL1       -0.1900
     20 C         141.4760  143.6757  161.1304 C.3     1  UNL1        0.1682
     21 C         141.1917  144.3432  159.8176 C.3     1  UNL1        0.0444
     22 C         140.8262  145.0078  158.3703 C.3     1  UNL1        0.0808
     23 N         141.8503  145.8292  159.0958 N.3     1  UNL1       -0.3202
     24 H         142.0608  145.3943  159.9941 H       1  UNL1        0.1189
     25 H         141.4851  146.7690  159.2504 H       1  UNL1        0.1189
     26 S         141.5608  139.5719  167.9739 S.3     1  UNL1       -0.0665
     27 C         141.7344  140.7458  168.8914 C.ar    1  UNL1        0.0455
     28 C         143.0619  141.4385  168.9802 C.ar    1  UNL1        0.0281
     29 C         143.2355  142.6124  169.8976 C.ar    1  UNL1        0.1009
     30 N         142.0815  143.0936  170.7264 N.ar    1  UNL1       -0.2287
     31 C         140.7540  142.4009  170.6376 C.ar    1  UNL1        0.1365
     32 N         139.6000  142.8822  171.4663 N.pl3   1  UNL1       -0.3419
     33 C         140.5804  141.2270  169.7201 C.ar    1  UNL1        0.0947
     34 CL        139.2529  140.5343  169.6313 Cl      1  UNL1       -0.0788
     35 H         139.7140  143.6527  172.0685 H       1  UNL1        0.1437
     36 H         138.7287  142.4276  171.4081 H       1  UNL1        0.1437
@<TRIPOS>BOND
     1    13    12    1
     2    13    14    1
     3    14    15    1
     4    15    16    1
     5    16    17    1
     6    17    18    1
     7    18    19    1
     8    19     1    1
     9     1     2    2
    10     2     3    1
    11     3     4    2
    12     4     5    1
    13     5     6    2
    14     6    26    1
    15    26    27    1
    16    27    28   ar
    17    28    29   ar
    18    29    30   ar
    19    30    31   ar
    20    31    32    1
    21    31    33   ar
    22    33    34    1
    23     6     7    1
    24     7     8    1
    25     8     9    2
    26     8    10   am
    27    10    11    1
    28    19    20    1
    29    20    21    1
    30    16    22    1
    31    22    23    1
    32    22    13    1
    33    21    16    1
    34    10     1    1
    35     7     3    1
    36    33    27   ar
    37    32    35    1
    38    32    36    1
    39    23    24    1
    40    23    25    1
@<TRIPOS>MOLECULE
*****
 36 40 0 0 0
SMALL
GASTEIGER

@<TRIPOS>ATOM
      1 C         140.2769  139.2104  163.3911 C.2     1  UNL1        0.4243
      2 N         139.2653  138.3675  164.1095 N.2     1  UNL1        0.0275
      3 C         138.9219  138.6635  165.5394 C.2     1  UNL1        0.3996
      4 N         137.9715  138.0114  166.4991 N.2     1  UNL1        0.0831
      5 N         138.0523  138.7472  167.8037 N.2     1  UNL1       -0.0309
      6 C         139.0528  139.8542  167.6502 C.2     1  UNL1        0.1568
      7 C         139.5903  139.8025  166.2509 C.3     1  UNL1        0.2565
      8 C         140.6020  140.6454  165.5324 C.2     1  UNL1        0.3060
      9 O         141.2703  141.7843  166.2439 O.2     1  UNL1       -0.2554
     10 N         140.9453  140.3493  164.1026 N.am    1  UNL1       -0.1358
     11 C         141.9569  141.1922  163.3841 C.3     1  UNL1        0.2167
     12 C         140.6562  138.1940  155.2773 C.3     1  UNL1        0.0335
     13 C         141.1657  138.1272  156.6865 C.3     1  UNL1        0.1294
     14 O         142.5052  137.6062  157.1160 O.3     1  UNL1       -0.3548
     15 C         142.5925  137.7268  158.6086 C.3     1  UNL1        0.1435
     16 C         141.3071  138.3223  159.1016 C.3     1  UNL1        0.0490
     17 C         142.2954  138.0191  160.1885 C.3     1  UNL1        0.0444
     18 C         141.9520  138.3152  161.6183 C.3     1  UNL1        0.1682
     19 N         140.6203  138.9144  161.9612 N.pl3   1  UNL1       -0.1900
     20 C         139.6320  139.2175  160.8744 C.3     1  UNL1        0.1682
     21 C         139.9754  138.9215  159.4446 C.3     1  UNL1        0.0444
     22 C         140.4252  138.5698  157.9136 C.3     1  UNL1        0.0808
     23 N         139.0453  139.1567  157.9470 N.3     1  UNL1       -0.3202
     24 H         138.7885  139.3670  158.9115 H       1  UNL1        0.1189
     25 H         138.3817  138.4876  157.5567 H       1  UNL1        0.1189
     26 S         139.4467  140.8398  168.7102 S.3     1  UNL1       -0.0665
     27 C         140.8239  140.7939  169.3026 C.ar    1  UNL1        0.0455
     28 C         141.5048  139.4746  169.5165 C.ar    1  UNL1        0.0281
     29 C         142.8821  139.4286  170.1088 C.ar    1  UNL1        0.1009
     30 N         143.5785  140.7021  170.4874 N.ar    1  UNL1       -0.2287
     31 C         142.8976  142.0214  170.2735 C.ar    1  UNL1        0.1365
     32 N         143.5941  143.2949  170.6521 N.pl3   1  UNL1       -0.3419
     33 C         141.5204  142.0674  169.6811 C.ar    1  UNL1        0.0947
     34 CL        140.8395  143.3867  169.4673 Cl      1  UNL1       -0.0788
     35 H         144.4981  143.2647  171.0409 H       1  UNL1        0.1437
     36 H         143.1473  144.1608  170.5117 H       1  UNL1        0.1437
@<TRIPOS>BOND
     1    13    12    1
     2    13    14    1
     3    14    15    1
     4    15    16    1
     5    16    17    1
     6    17    18    1
     7    18    19    1
     8    19     1    1
     9     1     2    2
    10     2     3    1
    11     3     4    2
    12     4     5    1
    13     5     6    2
    14     6    26    1
    15    26    27    1
    16    27    28   ar
    17    28    29   ar
    18    29    30   ar
    19    30    31   ar
    20    31    32    1
    21    31    33   ar
    22    33    34    1
    23     6     7    1
    24     7     8    1
    25     8     9    2
    26     8    10   am
    27    10    11    1
    28    19    20    1
    29    20    21    1
    30    16    22    1
    31    22    23    1
    32    22    13    1
    33    21    16    1
    34    10     1    1
    35     7     3    1
    36    33    27   ar
    37    32    35    1
    38    32    36    1
    39    23    24    1
    40    23    25    1
@<TRIPOS>MOLECULE
*****
 36 40 0 0 0
SMALL
GASTEIGER

@<TRIPOS>ATOM
      1 C         140.9828  139.7737  161.6400 C.2     1  UNL1        0.4243
      2 N         141.3357  141.2231  161.7964 N.2     1  UNL1        0.0275
      3 C         141.1533  141.9006  163.1223 C.2     1  UNL1        0.3996
      4 N         141.4124  143.3070  163.5748 N.2     1  UNL1        0.0831
      5 N         141.0372  143.4042  165.0238 N.2     1  UNL1       -0.0309
      6 C         140.5462  142.0579  165.4668 C.2     1  UNL1        0.1568
      7 C         140.6180  141.1286  164.2917 C.3     1  UNL1        0.2565
      8 C         140.2651  139.6791  164.1352 C.2     1  UNL1        0.3060
      9 O         139.7298  138.9071  165.3046 O.2     1  UNL1       -0.2554
     10 N         140.4475  139.0016  162.8094 N.am    1  UNL1       -0.1358
     11 C         140.0946  137.5521  162.6529 C.3     1  UNL1        0.2167
     12 C         140.4118  136.4958  154.1607 C.3     1  UNL1        0.0335
     13 C         141.0999  136.8573  155.4435 C.3     1  UNL1        0.1294
     14 O         142.5216  136.5398  155.8013 O.3     1  UNL1       -0.3548
     15 C         142.7875  137.0861  157.1729 C.3     1  UNL1        0.1435
     16 C         141.5301  137.7412  157.6627 C.3     1  UNL1        0.0490
     17 C         142.6701  137.8050  158.6354 C.3     1  UNL1        0.0444
     18 C         142.4876  138.4825  159.9612 C.3     1  UNL1        0.1682
     19 N         141.1652  139.0961  160.3142 N.pl3   1  UNL1       -0.1900
     20 C         140.0252  139.0323  159.3414 C.3     1  UNL1        0.1682
     21 C         140.2076  138.3548  158.0157 C.3     1  UNL1        0.0444
     22 C         140.4871  137.5997  156.5938 C.3     1  UNL1        0.0808
     23 N         139.0786  138.1110  156.6633 N.3     1  UNL1       -0.3202
     24 H         138.9299  138.5771  157.5583 H       1  UNL1        0.1189
     25 H         138.4287  137.3300  156.5745 H       1  UNL1        0.1189
     26 S         140.0676  141.7032  166.8435 S.3     1  UNL1       -0.0665
     27 C         141.0507  141.2755  167.8925 C.ar    1  UNL1        0.0455
     28 C         141.7806  139.9729  167.7497 C.ar    1  UNL1        0.0281
     29 C         142.7638  139.5452  168.7987 C.ar    1  UNL1        0.1009
     30 N         143.0171  140.4201  169.9904 N.ar    1  UNL1       -0.2287
     31 C         142.2873  141.7228  170.1332 C.ar    1  UNL1        0.1365
     32 N         142.5407  142.5977  171.3250 N.pl3   1  UNL1       -0.3419
     33 C         141.3041  142.1505  169.0842 C.ar    1  UNL1        0.0947
     34 CL        140.5742  143.4532  169.2270 Cl      1  UNL1       -0.0788
     35 H         143.1860  142.3170  172.0134 H       1  UNL1        0.1437
     36 H         142.0616  143.4527  171.4187 H       1  UNL1        0.1437
@<TRIPOS>BOND
     1    13    12    1
     2    13    14    1
     3    14    15    1
     4    15    16    1
     5    16    17    1
     6    17    18    1
     7    18    19    1
     8    19     1    1
     9     1     2    2
    10     2     3    1
    11     3     4    2
    12     4     5    1
    13     5     6    2
    14     6    26    1
    15    26    27    1
    16    27    28   ar
    17    28    29   ar
    18    29    30   ar
    19    30    31   ar
    20    31    32    1
    21    31    33   ar
    22    33    34    1
    23     6     7    1
    24     7     8    1
    25     8     9    2
    26     8    10   am
    27    10    11    1
    28    19    20    1
    29    20    21    1
    30    16    22    1
    31    22    23    1
    32    22    13    1
    33    21    16    1
    34    10     1    1
    35     7     3    1
    36    33    27   ar
    37    32    35    1
    38    32    36    1
    39    23    24    1
    40    23    25    1
