@<TRIPOS>MOLECULE
*****
 33 36 0 0 0
SMALL
GASTEIGER

@<TRIPOS>ATOM
      1 C         142.5031  139.5203  167.7482 C.3     1  UNL1        0.0656
      2 C         141.7445  140.7726  167.4219 C.3     1  UNL1        0.0336
      3 C         141.1186  141.5782  168.5216 C.3     1  UNL1        0.0795
      4 C         140.3174  142.8462  168.5056 C.3     1  UNL1        0.1720
      5 C         139.9442  143.6381  167.2876 C.3     1  UNL1        0.0474
      6 O         139.9551  143.1833  169.9216 O.3     1  UNL1       -0.4506
      7 C         140.5323  142.1237  170.8127 C.2     1  UNL1        0.3414
      8 O         140.4116  142.0662  172.3067 O.2     1  UNL1       -0.2475
      9 C         141.2514  141.1317  169.9474 C.3     1  UNL1        0.1859
     10 O         141.2999  140.8118  171.4121 O.3     1  UNL1       -0.3761
     11 C         142.0100  139.8794  170.2736 C.3     1  UNL1        0.1044
     12 C         142.6358  139.0737  169.1739 C.3     1  UNL1        0.2669
     13 F         143.0340  138.2477  170.3610 F       1  UNL1       -0.2042
     14 F         143.3999  137.9812  168.4866 F       1  UNL1       -0.2042
     15 H         141.8035  139.9939  171.5479 H       1  UNL1        0.2109
     16 C         142.2847  138.2056  165.5179 C.3     1  UNL1        0.0002
     17 C         143.1289  138.7145  166.6485 C.3     1  UNL1        0.0058
     18 C         141.6117  141.2191  165.9961 C.2     1  UNL1       -0.0245
     19 C         142.6325  142.1433  165.4015 C.2     1  UNL1        0.0145
     20 C         142.4997  142.5898  163.9756 C.ar    1  UNL1        0.0810
     21 C         141.4905  141.9389  163.0768 C.ar    1  UNL1        0.0191
     22 C         141.3576  142.3854  161.6510 C.ar    1  UNL1        0.0031
     23 C         142.2341  143.4827  161.1239 C.ar    1  UNL1        0.0198
     24 C         143.2434  144.1336  162.0227 C.ar    1  UNL1        0.0988
     25 N         143.3761  143.6871  163.4485 N.ar    1  UNL1       -0.2438
     26 C         142.1013  143.9292  159.6980 C.ar    1  UNL1        0.0111
     27 C         142.9458  143.2962  158.6321 C.ar    1  UNL1        0.0007
     28 C         142.8130  143.7426  157.2063 C.ar    1  UNL1        0.0000
     29 C         141.8357  144.8221  156.8464 C.ar    1  UNL1        0.0007
     30 C         140.9912  145.4551  157.9123 C.ar    1  UNL1        0.0103
     31 C         141.1240  145.0086  159.3381 C.ar    1  UNL1        0.0685
     32 C         140.2795  145.6417  160.4040 C.1     1  UNL1        0.1004
     33 N         139.4350  146.2747  161.4699 N.1     1  UNL1       -0.1908
@<TRIPOS>BOND
     1    16    17    1
     2     1    17    1
     3     1     2    1
     4     2    18    1
     5    18    19    2
     6    19    20    1
     7    20    21   ar
     8    21    22   ar
     9    22    23   ar
    10    23    26    1
    11    26    27   ar
    12    27    28   ar
    13    28    29   ar
    14    29    30   ar
    15    30    31   ar
    16    31    32    1
    17    32    33    3
    18    23    24   ar
    19    24    25   ar
    20     2     3    1
    21     3     4    1
    22     4     5    1
    23     4     6    1
    24     6     7    1
    25     7     8    2
    26     7     9    1
    27     9    10    1
    28     9    11    1
    29    11    12    1
    30    12    13    1
    31    12    14    1
    32    12     1    1
    33    25    20   ar
    34     9     3    1
    35    31    26   ar
    36    10    15    1
@<TRIPOS>MOLECULE
*****
 33 36 0 0 0
SMALL
GASTEIGER

@<TRIPOS>ATOM
      1 C         138.9455  139.8076  167.6454 C.3     1  UNL1        0.0656
      2 C         140.1921  140.4939  167.1708 C.3     1  UNL1        0.0336
      3 C         141.0692  141.2168  168.1495 C.3     1  UNL1        0.0795
      4 C         142.3494  141.9793  167.9772 C.3     1  UNL1        0.1720
      5 C         143.0796  142.1958  166.6850 C.3     1  UNL1        0.0474
      6 O         142.7712  142.4872  169.3241 O.3     1  UNL1       -0.4506
      7 C         141.7517  142.0387  170.3288 C.2     1  UNL1        0.3414
      8 O         141.7793  142.3250  171.8010 O.2     1  UNL1       -0.2475
      9 C         140.6998  141.2535  169.6029 C.3     1  UNL1        0.1859
     10 O         140.4606  141.3750  171.0787 O.3     1  UNL1       -0.3761
     11 C         139.4533  140.5672  170.0775 C.3     1  UNL1        0.1044
     12 C         138.5762  139.8443  169.0987 C.3     1  UNL1        0.2669
     13 F         137.8097  139.6004  170.3648 F       1  UNL1       -0.2042
     14 F         137.4328  139.0366  168.5597 F       1  UNL1       -0.2042
     15 H         139.6421  140.9102  171.3129 H       1  UNL1        0.2109
     16 C         138.4351  137.7042  166.2082 C.3     1  UNL1        0.0002
     17 C         138.0684  139.0846  166.6666 C.3     1  UNL1        0.0058
     18 C         140.5614  140.4571  165.7174 C.2     1  UNL1       -0.0245
     19 C         141.4180  139.3449  165.1891 C.2     1  UNL1        0.0145
     20 C         141.7873  139.3083  163.7357 C.ar    1  UNL1        0.0810
     21 C         143.0965  138.7131  163.3093 C.ar    1  UNL1        0.0191
     22 C         143.4658  138.6765  161.8559 C.ar    1  UNL1        0.0031
     23 C         142.5258  139.2350  160.8289 C.ar    1  UNL1        0.0198
     24 C         141.2166  139.8302  161.2554 C.ar    1  UNL1        0.0988
     25 N         140.8474  139.8668  162.7088 N.ar    1  UNL1       -0.2438
     26 C         142.8951  139.1984  159.3755 C.ar    1  UNL1        0.0111
     27 C         142.4882  138.0299  158.5276 C.ar    1  UNL1        0.0007
     28 C         142.8575  137.9932  157.0742 C.ar    1  UNL1        0.0000
     29 C         143.6336  139.1251  156.4689 C.ar    1  UNL1        0.0007
     30 C         144.0405  140.2936  157.3169 C.ar    1  UNL1        0.0103
     31 C         143.6712  140.3302  158.7702 C.ar    1  UNL1        0.0685
     32 C         144.0781  141.4987  159.6182 C.1     1  UNL1        0.1004
     33 N         144.4850  142.6672  160.4662 N.1     1  UNL1       -0.1908
@<TRIPOS>BOND
     1    16    17    1
     2     1    17    1
     3     1     2    1
     4     2    18    1
     5    18    19    2
     6    19    20    1
     7    20    21   ar
     8    21    22   ar
     9    22    23   ar
    10    23    26    1
    11    26    27   ar
    12    27    28   ar
    13    28    29   ar
    14    29    30   ar
    15    30    31   ar
    16    31    32    1
    17    32    33    3
    18    23    24   ar
    19    24    25   ar
    20     2     3    1
    21     3     4    1
    22     4     5    1
    23     4     6    1
    24     6     7    1
    25     7     8    2
    26     7     9    1
    27     9    10    1
    28     9    11    1
    29    11    12    1
    30    12    13    1
    31    12    14    1
    32    12     1    1
    33    25    20   ar
    34     9     3    1
    35    31    26   ar
    36    10    15    1
@<TRIPOS>MOLECULE
*****
 33 36 0 0 0
SMALL
GASTEIGER

@<TRIPOS>ATOM
      1 C         139.2029  139.9693  167.3172 C.3     1  UNL1        0.0656
      2 C         140.4760  140.7168  167.0513 C.3     1  UNL1        0.0336
      3 C         141.2133  141.3686  168.1833 C.3     1  UNL1        0.0795
      4 C         142.4827  142.1665  168.2269 C.3     1  UNL1        0.1720
      5 C         143.3508  142.5072  167.0519 C.3     1  UNL1        0.0474
      6 O         142.7317  142.5639  169.6517 O.3     1  UNL1       -0.4506
      7 C         141.6162  142.0116  170.4887 C.2     1  UNL1        0.3414
      8 O         141.4655  142.1702  171.9726 O.2     1  UNL1       -0.2475
      9 C         140.6778  141.2728  169.5811 C.3     1  UNL1        0.1859
     10 O         140.2665  141.2621  171.0236 O.3     1  UNL1       -0.3761
     11 C         139.4048  140.5253  169.8470 C.3     1  UNL1        0.1044
     12 C         138.6674  139.8735  168.7150 C.3     1  UNL1        0.2669
     13 F         137.7671  139.5072  169.8575 F       1  UNL1       -0.2042
     14 F         137.6173  139.0945  167.9799 F       1  UNL1       -0.2042
     15 H         139.4399  140.7638  171.1204 H       1  UNL1        0.2109
     16 C         139.0399  138.1043  165.5156 C.3     1  UNL1        0.0002
     17 C         138.4655  139.3175  166.1852 C.3     1  UNL1        0.0058
     18 C         141.0115  140.8125  165.6534 C.2     1  UNL1       -0.0245
     19 C         140.5768  141.9354  164.7589 C.2     1  UNL1        0.0145
     20 C         141.1123  142.0310  163.3611 C.ar    1  UNL1        0.0810
     21 C         142.5011  142.5456  163.1236 C.ar    1  UNL1        0.0191
     22 C         143.0367  142.6413  161.7257 C.ar    1  UNL1        0.0031
     23 C         142.1834  142.2223  160.5653 C.ar    1  UNL1        0.0198
     24 C         140.7946  141.7077  160.8028 C.ar    1  UNL1        0.0988
     25 N         140.2591  141.6121  162.2007 N.ar    1  UNL1       -0.2438
     26 C         142.7190  142.3179  159.1674 C.ar    1  UNL1        0.0111
     27 C         142.4394  143.5366  158.3389 C.ar    1  UNL1        0.0007
     28 C         142.9750  143.6323  156.9410 C.ar    1  UNL1        0.0000
     29 C         143.7901  142.5091  156.3718 C.ar    1  UNL1        0.0007
     30 C         144.0696  141.2904  157.2003 C.ar    1  UNL1        0.0103
     31 C         143.5341  141.1947  158.5982 C.ar    1  UNL1        0.0685
     32 C         143.8136  139.9760  159.4267 C.1     1  UNL1        0.1004
     33 N         144.0932  138.7572  160.2552 N.1     1  UNL1       -0.1908
@<TRIPOS>BOND
     1    16    17    1
     2     1    17    1
     3     1     2    1
     4     2    18    1
     5    18    19    2
     6    19    20    1
     7    20    21   ar
     8    21    22   ar
     9    22    23   ar
    10    23    26    1
    11    26    27   ar
    12    27    28   ar
    13    28    29   ar
    14    29    30   ar
    15    30    31   ar
    16    31    32    1
    17    32    33    3
    18    23    24   ar
    19    24    25   ar
    20     2     3    1
    21     3     4    1
    22     4     5    1
    23     4     6    1
    24     6     7    1
    25     7     8    2
    26     7     9    1
    27     9    10    1
    28     9    11    1
    29    11    12    1
    30    12    13    1
    31    12    14    1
    32    12     1    1
    33    25    20   ar
    34     9     3    1
    35    31    26   ar
    36    10    15    1
@<TRIPOS>MOLECULE
*****
 33 36 0 0 0
SMALL
GASTEIGER

@<TRIPOS>ATOM
      1 C         142.5202  141.9913  166.5651 C.3     1  UNL1        0.0656
      2 C         141.2722  141.2304  166.2279 C.3     1  UNL1        0.0336
      3 C         140.4344  140.6407  167.3235 C.3     1  UNL1        0.0795
      4 C         139.1623  139.8462  167.2972 C.3     1  UNL1        0.1720
      5 C         138.4001  139.4425  166.0700 C.3     1  UNL1        0.0474
      6 O         138.7863  139.5263  168.7136 O.3     1  UNL1       -0.4506
      7 C         139.8260  140.1231  169.6153 C.2     1  UNL1        0.3414
      8 O         139.8439  140.0448  171.1132 O.2     1  UNL1       -0.2475
      9 C         140.8445  140.8118  168.7561 C.3     1  UNL1        0.1859
     10 O         141.1266  140.9005  170.2267 O.3     1  UNL1       -0.3761
     11 C         142.0925  141.5727  169.0932 C.3     1  UNL1        0.1044
     12 C         142.9303  142.1624  167.9977 C.3     1  UNL1        0.2669
     13 F         143.7276  142.5899  169.1941 F       1  UNL1       -0.2042
     14 F         144.0451  142.9006  167.3177 F       1  UNL1       -0.2042
     15 H         141.9437  141.4033  170.3695 H       1  UNL1        0.2109
     16 C         144.2938  141.7073  164.6879 C.3     1  UNL1        0.0002
     17 C         143.3581  142.5811  165.4695 C.3     1  UNL1        0.0058
     18 C         140.8621  141.0593  164.7952 C.2     1  UNL1       -0.0245
     19 C         141.2658  139.8269  164.0416 C.2     1  UNL1        0.0145
     20 C         140.8556  139.6559  162.6089 C.ar    1  UNL1        0.0810
     21 C         139.5440  139.0085  162.2764 C.ar    1  UNL1        0.0191
     22 C         139.1339  138.8375  160.8437 C.ar    1  UNL1        0.0031
     23 C         140.0354  139.3139  159.7435 C.ar    1  UNL1        0.0198
     24 C         141.3471  139.9613  160.0760 C.ar    1  UNL1        0.0988
     25 N         141.7571  140.1322  161.5087 N.ar    1  UNL1       -0.2438
     26 C         139.6253  139.1429  158.3108 C.ar    1  UNL1        0.0111
     27 C         139.9397  137.8668  157.5879 C.ar    1  UNL1        0.0007
     28 C         139.5295  137.6957  156.1552 C.ar    1  UNL1        0.0000
     29 C         138.8050  138.8009  155.4456 C.ar    1  UNL1        0.0007
     30 C         138.4907  140.0771  156.1685 C.ar    1  UNL1        0.0103
     31 C         138.9008  140.2481  157.6012 C.ar    1  UNL1        0.0685
     32 C         138.5865  141.5242  158.3241 C.1     1  UNL1        0.1004
     33 N         138.2721  142.8003  159.0470 N.1     1  UNL1       -0.1908
@<TRIPOS>BOND
     1    16    17    1
     2     1    17    1
     3     1     2    1
     4     2    18    1
     5    18    19    2
     6    19    20    1
     7    20    21   ar
     8    21    22   ar
     9    22    23   ar
    10    23    26    1
    11    26    27   ar
    12    27    28   ar
    13    28    29   ar
    14    29    30   ar
    15    30    31   ar
    16    31    32    1
    17    32    33    3
    18    23    24   ar
    19    24    25   ar
    20     2     3    1
    21     3     4    1
    22     4     5    1
    23     4     6    1
    24     6     7    1
    25     7     8    2
    26     7     9    1
    27     9    10    1
    28     9    11    1
    29    11    12    1
    30    12    13    1
    31    12    14    1
    32    12     1    1
    33    25    20   ar
    34     9     3    1
    35    31    26   ar
    36    10    15    1
@<TRIPOS>MOLECULE
*****
 33 36 0 0 0
SMALL
GASTEIGER

@<TRIPOS>ATOM
      1 C         142.5851  142.0287  166.5966 C.3     1  UNL1        0.0656
      2 C         141.3391  141.3048  166.1797 C.3     1  UNL1        0.0336
      3 C         140.4637  140.6618  167.2142 C.3     1  UNL1        0.0795
      4 C         139.1844  139.8863  167.1049 C.3     1  UNL1        0.1720
      5 C         138.4536  139.5656  165.8349 C.3     1  UNL1        0.0474
      6 O         138.7643  139.4878  168.4886 O.3     1  UNL1       -0.4506
      7 C         139.7840  140.0170  169.4531 C.2     1  UNL1        0.3414
      8 O         139.7579  139.8499  170.9436 O.2     1  UNL1       -0.2475
      9 C         140.8343  140.7426  168.6655 C.3     1  UNL1        0.1859
     10 O         141.0747  140.7404  170.1461 O.3     1  UNL1       -0.3761
     11 C         142.0802  141.4664  169.0823 C.3     1  UNL1        0.1044
     12 C         142.9556  142.1095  168.0478 C.3     1  UNL1        0.2669
     13 F         143.7227  142.4553  169.2895 F       1  UNL1       -0.2042
     14 F         144.0974  142.8726  167.4446 F       1  UNL1       -0.2042
     15 H         141.8928  141.2236  170.3415 H       1  UNL1        0.2109
     16 C         144.3586  141.8260  164.7088 C.3     1  UNL1        0.0002
     17 C         143.4605  142.6718  165.5620 C.3     1  UNL1        0.0058
     18 C         140.9686  141.2241  164.7284 C.2     1  UNL1       -0.0245
     19 C         140.1983  142.3404  164.0878 C.2     1  UNL1        0.0145
     20 C         139.8279  142.2595  162.6365 C.ar    1  UNL1        0.0810
     21 C         138.4709  142.7095  162.1826 C.ar    1  UNL1        0.0191
     22 C         138.1004  142.6286  160.7313 C.ar    1  UNL1        0.0031
     23 C         139.0871  142.0978  159.7338 C.ar    1  UNL1        0.0198
     24 C         140.4441  141.6479  160.1877 C.ar    1  UNL1        0.0988
     25 N         140.8145  141.7288  161.6390 N.ar    1  UNL1       -0.2438
     26 C         138.7167  142.0170  158.2825 C.ar    1  UNL1        0.0111
     27 C         137.9773  140.8199  157.7627 C.ar    1  UNL1        0.0007
     28 C         137.6069  140.7390  156.3114 C.ar    1  UNL1        0.0000
     29 C         137.9758  141.8554  155.3800 C.ar    1  UNL1        0.0007
     30 C         138.7152  143.0525  155.8998 C.ar    1  UNL1        0.0103
     31 C         139.0856  143.1334  157.3511 C.ar    1  UNL1        0.0685
     32 C         139.8250  144.3305  157.8709 C.1     1  UNL1        0.1004
     33 N         140.5643  145.5276  158.3907 N.1     1  UNL1       -0.1908
@<TRIPOS>BOND
     1    16    17    1
     2     1    17    1
     3     1     2    1
     4     2    18    1
     5    18    19    2
     6    19    20    1
     7    20    21   ar
     8    21    22   ar
     9    22    23   ar
    10    23    26    1
    11    26    27   ar
    12    27    28   ar
    13    28    29   ar
    14    29    30   ar
    15    30    31   ar
    16    31    32    1
    17    32    33    3
    18    23    24   ar
    19    24    25   ar
    20     2     3    1
    21     3     4    1
    22     4     5    1
    23     4     6    1
    24     6     7    1
    25     7     8    2
    26     7     9    1
    27     9    10    1
    28     9    11    1
    29    11    12    1
    30    12    13    1
    31    12    14    1
    32    12     1    1
    33    25    20   ar
    34     9     3    1
    35    31    26   ar
    36    10    15    1
@<TRIPOS>MOLECULE
*****
 33 36 0 0 0
SMALL
GASTEIGER

@<TRIPOS>ATOM
      1 C         142.5508  141.8248  166.9724 C.3     1  UNL1        0.0656
      2 C         141.5210  140.9649  166.3013 C.3     1  UNL1        0.0336
      3 C         140.3935  140.3828  167.1011 C.3     1  UNL1        0.0795
      4 C         139.2391  139.5052  166.7173 C.3     1  UNL1        0.1720
      5 C         138.9472  138.9839  165.3414 C.3     1  UNL1        0.0474
      6 O         138.4279  139.2404  167.9509 O.3     1  UNL1       -0.4506
      7 C         139.0809  139.9544  169.0972 C.2     1  UNL1        0.3414
      8 O         138.6030  139.9611  170.5190 O.2     1  UNL1       -0.2475
      9 C         140.2957  140.6604  168.5720 C.3     1  UNL1        0.1859
     10 O         140.0682  140.8495  170.0425 O.3     1  UNL1       -0.3761
     11 C         141.3255  141.5202  169.2430 C.3     1  UNL1        0.1044
     12 C         142.4530  142.1024  168.4432 C.3     1  UNL1        0.2669
     13 F         142.7871  142.6480  169.7999 F       1  UNL1       -0.2042
     14 F         143.6966  142.8741  168.1146 F       1  UNL1       -0.2042
     15 H         140.7682  141.4127  170.4082 H       1  UNL1        0.2109
     16 C         143.3905  143.3840  165.0714 C.3     1  UNL1        0.0002
     17 C         143.6784  142.4070  166.1726 C.3     1  UNL1        0.0058
     18 C         141.6188  140.6873  164.8304 C.2     1  UNL1       -0.0245
     19 C         142.4754  139.5600  164.3353 C.2     1  UNL1        0.0145
     20 C         142.5732  139.2824  162.8645 C.ar    1  UNL1        0.0810
     21 C         143.9075  138.9943  162.2427 C.ar    1  UNL1        0.0191
     22 C         144.0053  138.7168  160.7718 C.ar    1  UNL1        0.0031
     23 C         142.7687  138.7274  159.9227 C.ar    1  UNL1        0.0198
     24 C         141.4344  139.0155  160.5445 C.ar    1  UNL1        0.0988
     25 N         141.3367  139.2930  162.0154 N.ar    1  UNL1       -0.2438
     26 C         142.8665  138.4499  158.4518 C.ar    1  UNL1        0.0111
     27 C         142.6652  137.0556  157.9367 C.ar    1  UNL1        0.0007
     28 C         142.7630  136.7781  156.4658 C.ar    1  UNL1        0.0000
     29 C         143.0620  137.8949  155.5102 C.ar    1  UNL1        0.0007
     30 C         143.2633  139.2892  156.0254 C.ar    1  UNL1        0.0103
     31 C         143.1655  139.5667  157.4962 C.ar    1  UNL1        0.0685
     32 C         143.3668  140.9610  158.0114 C.1     1  UNL1        0.1004
     33 N         143.5680  142.3553  158.5266 N.1     1  UNL1       -0.1908
@<TRIPOS>BOND
     1    16    17    1
     2     1    17    1
     3     1     2    1
     4     2    18    1
     5    18    19    2
     6    19    20    1
     7    20    21   ar
     8    21    22   ar
     9    22    23   ar
    10    23    26    1
    11    26    27   ar
    12    27    28   ar
    13    28    29   ar
    14    29    30   ar
    15    30    31   ar
    16    31    32    1
    17    32    33    3
    18    23    24   ar
    19    24    25   ar
    20     2     3    1
    21     3     4    1
    22     4     5    1
    23     4     6    1
    24     6     7    1
    25     7     8    2
    26     7     9    1
    27     9    10    1
    28     9    11    1
    29    11    12    1
    30    12    13    1
    31    12    14    1
    32    12     1    1
    33    25    20   ar
    34     9     3    1
    35    31    26   ar
    36    10    15    1
@<TRIPOS>MOLECULE
*****
 33 36 0 0 0
SMALL
GASTEIGER

@<TRIPOS>ATOM
      1 C         139.9687  144.2415  159.7307 C.3     1  UNL1        0.0656
      2 C         139.3900  143.0436  160.4238 C.3     1  UNL1        0.0336
      3 C         138.6856  141.9847  159.6285 C.3     1  UNL1        0.0795
      4 C         138.0199  140.7026  160.0322 C.3     1  UNL1        0.1720
      5 C         137.9104  140.1679  161.4294 C.3     1  UNL1        0.0474
      6 O         137.4828  140.0492  158.7935 O.3     1  UNL1       -0.4506
      7 C         137.8165  140.9274  157.6241 C.2     1  UNL1        0.3414
      8 O         137.4681  140.6568  156.1905 O.2     1  UNL1       -0.2475
      9 C         138.5599  142.1237  158.1402 C.3     1  UNL1        0.1859
     10 O         138.3575  142.1256  156.6539 O.3     1  UNL1       -0.3761
     11 C         139.1387  143.3215  157.4472 C.3     1  UNL1        0.1044
     12 C         139.8431  144.3804  158.2425 C.3     1  UNL1        0.2669
     13 F         139.9784  144.9566  156.8642 F       1  UNL1       -0.2042
     14 F         140.5945  145.6394  158.5591 F       1  UNL1       -0.2042
     15 H         138.7551  142.9249  156.2745 H       1  UNL1        0.2109
     16 C         139.8995  146.1603  161.4811 C.3     1  UNL1        0.0002
     17 C         140.6732  145.3005  160.5260 C.3     1  UNL1        0.0058
     18 C         139.5157  142.9048  161.9121 C.2     1  UNL1       -0.0245
     19 C         140.7694  142.3378  162.5092 C.2     1  UNL1        0.0145
     20 C         140.8950  142.1990  163.9975 C.ar    1  UNL1        0.0810
     21 C         140.1105  143.1008  164.9037 C.ar    1  UNL1        0.0191
     22 C         140.2361  142.9620  166.3920 C.ar    1  UNL1        0.0031
     23 C         141.1463  141.9213  166.9740 C.ar    1  UNL1        0.0198
     24 C         141.9308  141.0195  166.0678 C.ar    1  UNL1        0.0988
     25 N         141.8051  141.1583  164.5795 N.ar    1  UNL1       -0.2438
     26 C         141.2719  141.7824  168.4623 C.ar    1  UNL1        0.0111
     27 C         142.2712  142.6133  169.2114 C.ar    1  UNL1        0.0007
     28 C         142.3968  142.4745  170.6997 C.ar    1  UNL1        0.0000
     29 C         141.5231  141.5048  171.4388 C.ar    1  UNL1        0.0007
     30 C         140.5238  140.6740  170.6897 C.ar    1  UNL1        0.0103
     31 C         140.3982  140.8128  169.2014 C.ar    1  UNL1        0.0685
     32 C         139.3989  139.9820  168.4523 C.1     1  UNL1        0.1004
     33 N         138.3996  139.1511  167.7033 N.1     1  UNL1       -0.1908
@<TRIPOS>BOND
     1    16    17    1
     2     1    17    1
     3     1     2    1
     4     2    18    1
     5    18    19    2
     6    19    20    1
     7    20    21   ar
     8    21    22   ar
     9    22    23   ar
    10    23    26    1
    11    26    27   ar
    12    27    28   ar
    13    28    29   ar
    14    29    30   ar
    15    30    31   ar
    16    31    32    1
    17    32    33    3
    18    23    24   ar
    19    24    25   ar
    20     2     3    1
    21     3     4    1
    22     4     5    1
    23     4     6    1
    24     6     7    1
    25     7     8    2
    26     7     9    1
    27     9    10    1
    28     9    11    1
    29    11    12    1
    30    12    13    1
    31    12    14    1
    32    12     1    1
    33    25    20   ar
    34     9     3    1
    35    31    26   ar
    36    10    15    1
@<TRIPOS>MOLECULE
*****
 33 36 0 0 0
SMALL
GASTEIGER

@<TRIPOS>ATOM
      1 C         142.5640  141.8574  166.4584 C.3     1  UNL1        0.0656
      2 C         141.3432  141.0459  166.1405 C.3     1  UNL1        0.0336
      3 C         140.4658  140.5452  167.2494 C.3     1  UNL1        0.0795
      4 C         139.2076  139.7286  167.2428 C.3     1  UNL1        0.1720
      5 C         138.5066  139.1989  166.0270 C.3     1  UNL1        0.0474
      6 O         138.7734  139.5348  168.6654 O.3     1  UNL1       -0.4506
      7 C         139.7633  140.2316  169.5512 C.2     1  UNL1        0.3414
      8 O         139.7155  140.2931  171.0492 O.2     1  UNL1       -0.2475
      9 C         140.8093  140.8561  168.6761 C.3     1  UNL1        0.1859
     10 O         141.0242  141.0860  170.1426 O.3     1  UNL1       -0.3761
     11 C         142.0301  141.6676  168.9939 C.3     1  UNL1        0.1044
     12 C         142.9074  142.1683  167.8850 C.3     1  UNL1        0.2669
     13 F         143.6445  142.7195  169.0695 F       1  UNL1       -0.2042
     14 F         144.0408  142.8604  167.1876 F       1  UNL1       -0.2042
     15 H         141.8269  141.6148  170.2728 H       1  UNL1        0.2109
     16 C         143.0694  143.6052  164.6037 C.3     1  UNL1        0.0002
     17 C         143.4415  142.3582  165.3495 C.3     1  UNL1        0.0058
     18 C         140.9998  140.7350  164.7138 C.2     1  UNL1       -0.0245
     19 C         140.0882  141.6459  163.9462 C.2     1  UNL1        0.0145
     20 C         139.7449  141.3350  162.5195 C.ar    1  UNL1        0.0810
     21 C         140.3402  142.1503  161.4101 C.ar    1  UNL1        0.0191
     22 C         139.9969  141.8394  159.9834 C.ar    1  UNL1        0.0031
     23 C         139.0582  140.7131  159.6661 C.ar    1  UNL1        0.0198
     24 C         138.4628  139.8979  160.7756 C.ar    1  UNL1        0.0988
     25 N         138.8062  140.2089  162.2023 N.ar    1  UNL1       -0.2438
     26 C         138.7149  140.4022  158.2394 C.ar    1  UNL1        0.0111
     27 C         137.5284  141.0548  157.5942 C.ar    1  UNL1        0.0007
     28 C         137.1850  140.7439  156.1675 C.ar    1  UNL1        0.0000
     29 C         138.0283  139.7804  155.3861 C.ar    1  UNL1        0.0007
     30 C         139.2148  139.1279  156.0313 C.ar    1  UNL1        0.0103
     31 C         139.5581  139.4388  157.4580 C.ar    1  UNL1        0.0685
     32 C         140.7446  138.7862  158.1032 C.1     1  UNL1        0.1004
     33 N         141.9311  138.1336  158.7485 N.1     1  UNL1       -0.1908
@<TRIPOS>BOND
     1    16    17    1
     2     1    17    1
     3     1     2    1
     4     2    18    1
     5    18    19    2
     6    19    20    1
     7    20    21   ar
     8    21    22   ar
     9    22    23   ar
    10    23    26    1
    11    26    27   ar
    12    27    28   ar
    13    28    29   ar
    14    29    30   ar
    15    30    31   ar
    16    31    32    1
    17    32    33    3
    18    23    24   ar
    19    24    25   ar
    20     2     3    1
    21     3     4    1
    22     4     5    1
    23     4     6    1
    24     6     7    1
    25     7     8    2
    26     7     9    1
    27     9    10    1
    28     9    11    1
    29    11    12    1
    30    12    13    1
    31    12    14    1
    32    12     1    1
    33    25    20   ar
    34     9     3    1
    35    31    26   ar
    36    10    15    1
@<TRIPOS>MOLECULE
*****
 33 36 0 0 0
SMALL
GASTEIGER

@<TRIPOS>ATOM
      1 C         142.7507  139.3566  166.9358 C.3     1  UNL1        0.0656
      2 C         141.9327  140.6070  166.8026 C.3     1  UNL1        0.0336
      3 C         141.2875  141.2136  168.0132 C.3     1  UNL1        0.0795
      4 C         140.4307  142.4321  168.1895 C.3     1  UNL1        0.1720
      5 C         140.0055  143.3756  167.1037 C.3     1  UNL1        0.0474
      6 O         140.0738  142.5415  169.6423 O.3     1  UNL1       -0.4506
      7 C         140.7100  141.3906  170.3639 C.2     1  UNL1        0.3414
      8 O         140.6132  141.1098  171.8342 O.2     1  UNL1       -0.2475
      9 C         141.4601  140.5699  169.3570 C.3     1  UNL1        0.1859
     10 O         141.5435  140.0418  170.7585 O.3     1  UNL1       -0.3761
     11 C         142.2780  139.3196  169.4902 C.3     1  UNL1        0.1044
     12 C         142.9233  138.7130  168.2796 C.3     1  UNL1        0.2669
     13 F         143.3745  137.7414  169.3296 F       1  UNL1       -0.2042
     14 F         143.7253  137.7689  167.4337 F       1  UNL1       -0.2042
     15 H         142.0847  139.2369  170.7691 H       1  UNL1        0.2109
     16 C         144.3696  139.5517  164.9131 C.3     1  UNL1        0.0002
     17 C         143.3960  138.7500  165.7251 C.3     1  UNL1        0.0058
     18 C         141.7601  141.2506  165.4587 C.2     1  UNL1       -0.0245
     19 C         140.5511  140.9388  164.6275 C.2     1  UNL1        0.0145
     20 C         140.3786  141.5825  163.2836 C.ar    1  UNL1        0.0810
     21 C         141.3682  141.3113  162.1895 C.ar    1  UNL1        0.0191
     22 C         141.1957  141.9550  160.8457 C.ar    1  UNL1        0.0031
     23 C         140.0335  142.8699  160.5959 C.ar    1  UNL1        0.0198
     24 C         139.0438  143.1411  161.6900 C.ar    1  UNL1        0.0988
     25 N         139.2164  142.4973  163.0339 N.ar    1  UNL1       -0.2438
     26 C         139.8610  143.5136  159.2521 C.ar    1  UNL1        0.0111
     27 C         140.4848  144.8492  158.9746 C.ar    1  UNL1        0.0007
     28 C         140.3123  145.4929  157.6307 C.ar    1  UNL1        0.0000
     29 C         139.5159  144.8009  156.5644 C.ar    1  UNL1        0.0007
     30 C         138.8921  143.4653  156.8420 C.ar    1  UNL1        0.0103
     31 C         139.0646  142.8216  158.1858 C.ar    1  UNL1        0.0685
     32 C         138.4408  141.4860  158.4633 C.1     1  UNL1        0.1004
     33 N         137.8170  140.1504  158.7408 N.1     1  UNL1       -0.1908
@<TRIPOS>BOND
     1    16    17    1
     2     1    17    1
     3     1     2    1
     4     2    18    1
     5    18    19    2
     6    19    20    1
     7    20    21   ar
     8    21    22   ar
     9    22    23   ar
    10    23    26    1
    11    26    27   ar
    12    27    28   ar
    13    28    29   ar
    14    29    30   ar
    15    30    31   ar
    16    31    32    1
    17    32    33    3
    18    23    24   ar
    19    24    25   ar
    20     2     3    1
    21     3     4    1
    22     4     5    1
    23     4     6    1
    24     6     7    1
    25     7     8    2
    26     7     9    1
    27     9    10    1
    28     9    11    1
    29    11    12    1
    30    12    13    1
    31    12    14    1
    32    12     1    1
    33    25    20   ar
    34     9     3    1
    35    31    26   ar
    36    10    15    1
