@<TRIPOS>MOLECULE
*****
 34 38 0 0 0
SMALL
GASTEIGER

@<TRIPOS>ATOM
      1 N         143.2818  144.0520  161.5325 N.am    1  UNL1       -0.2991
      2 C         142.9101  143.2782  160.3024 C.2     1  UNL1        0.2224
      3 O         143.4410  141.8898  160.1008 O.2     1  UNL1       -0.2751
      4 H         142.9335  144.9633  161.6648 H       1  UNL1        0.1498
      5 C         142.0075  143.8928  159.2740 C.3     1  UNL1        0.0799
      6 C         140.8160  143.7971  158.3679 C.3     1  UNL1        0.0306
      7 C         139.7042  143.9934  157.3802 C.3     1  UNL1        0.0942
      8 N         139.8369  145.3706  156.8008 N.am    1  UNL1       -0.2761
      9 C         138.9343  145.9851  155.7723 C.2     1  UNL1        0.2490
     10 O         137.7731  145.2048  155.2313 O.2     1  UNL1       -0.2699
     11 C         141.0307  146.0253  157.4302 C.3     1  UNL1        0.0942
     12 C         141.6358  145.0528  158.3988 C.3     1  UNL1        0.0306
     13 C         139.1930  147.3799  155.2849 C.ar    1  UNL1        0.0536
     14 C         138.5885  148.5497  156.0033 C.ar    1  UNL1        0.0045
     15 C         138.8471  149.9445  155.5158 C.ar    1  UNL1        0.0001
     16 C         139.7104  150.1695  154.3099 C.ar    1  UNL1        0.0000
     17 C         140.3149  148.9997  153.5915 C.ar    1  UNL1        0.0001
     18 C         140.0562  147.6049  154.0789 C.ar    1  UNL1        0.0045
     19 C         144.1845  143.4374  162.5609 C.3     1  UNL1        0.1376
     20 C         142.6632  141.0203  165.1893 C.ar    1  UNL1        0.0617
     21 C         143.2005  141.2920  163.8155 C.ar    1  UNL1        0.0329
     22 C         143.5982  142.7368  163.7506 C.ar    1  UNL1        0.0999
     23 N         143.3066  143.3582  165.0844 N.ar    1  UNL1       -0.1681
     24 N         142.7287  142.2972  165.9736 N.ar    1  UNL1       -0.2340
     25 C         142.2929  142.4811  167.3970 C.ar    1  UNL1        0.0824
     26 C         143.3092  142.4687  168.5001 C.ar    1  UNL1        0.0191
     27 C         142.8734  142.6526  169.9236 C.ar    1  UNL1        0.0015
     28 C         141.4211  142.8488  170.2440 C.ar    1  UNL1        0.0001
     29 C         140.4048  142.8612  169.1408 C.ar    1  UNL1        0.0015
     30 C         140.8407  142.6773  167.7174 C.ar    1  UNL1        0.0191
     31 C         142.1503  139.7029  165.6909 C.3     1  UNL1        0.0459
     32 C         144.0234  138.0414  166.3844 C.3     1  UNL1        0.0004
     33 C         142.9007  138.9633  166.7584 C.3     1  UNL1        0.0059
     34 C         142.5285  139.1454  168.2001 C.3     1  UNL1        0.0004
@<TRIPOS>BOND
     1    32    33    1
     2    33    34    1
     3    33    31    1
     4    31    20    1
     5    20    21   ar
     6    21    22   ar
     7    22    19    1
     8    19     1    1
     9     1     2   am
    10     2     3    2
    11     2     5    1
    12     5     6    1
    13     6     7    1
    14     7     8    1
    15     8     9   am
    16     9    10    2
    17     9    13    1
    18    13    14   ar
    19    14    15   ar
    20    15    16   ar
    21    16    17   ar
    22    17    18   ar
    23     8    11    1
    24    11    12    1
    25    22    23   ar
    26    23    24   ar
    27    24    25    1
    28    25    26   ar
    29    26    27   ar
    30    27    28   ar
    31    28    29   ar
    32    29    30   ar
    33    24    20   ar
    34    30    25   ar
    35    12     5    1
    36    12     6    1
    37    18    13   ar
    38     1     4    1
@<TRIPOS>MOLECULE
*****
 34 38 0 0 0
SMALL
GASTEIGER

@<TRIPOS>ATOM
      1 N         143.0690  144.0050  161.3383 N.am    1  UNL1       -0.2991
      2 C         142.6327  143.2540  160.1153 C.2     1  UNL1        0.2224
      3 O         143.0564  141.8284  159.9197 O.2     1  UNL1       -0.2751
      4 H         142.7910  144.9407  161.4667 H       1  UNL1        0.1498
      5 C         141.7728  143.9286  159.0879 C.3     1  UNL1        0.0799
      6 C         140.6148  143.8902  158.1353 C.3     1  UNL1        0.0306
      7 C         139.5415  144.1469  157.1194 C.3     1  UNL1        0.0942
      8 N         139.7049  145.5509  156.6173 N.am    1  UNL1       -0.2761
      9 C         138.8449  146.2254  155.5899 C.2     1  UNL1        0.2490
     10 O         137.6991  145.4843  154.9673 O.2     1  UNL1       -0.2699
     11 C         140.8791  146.1619  157.3229 C.3     1  UNL1        0.0942
     12 C         141.4415  145.1355  158.2611 C.3     1  UNL1        0.0306
     13 C         139.1309  147.6412  155.1851 C.ar    1  UNL1        0.0536
     14 C         138.5025  148.7775  155.9360 C.ar    1  UNL1        0.0045
     15 C         138.7884  150.1932  155.5312 C.ar    1  UNL1        0.0001
     16 C         139.7029  150.4727  154.3755 C.ar    1  UNL1        0.0000
     17 C         140.3313  149.3364  153.6246 C.ar    1  UNL1        0.0001
     18 C         140.0454  147.9206  154.0293 C.ar    1  UNL1        0.0045
     19 C         143.9289  143.3303  162.3656 C.3     1  UNL1        0.1376
     20 C         142.8335  141.4700  165.5912 C.ar    1  UNL1        0.0617
     21 C         143.7468  142.4173  164.8713 C.ar    1  UNL1        0.0329
     22 C         143.2979  142.4982  163.4423 C.ar    1  UNL1        0.0999
     23 N         142.1071  141.6008  163.2791 N.ar    1  UNL1       -0.1681
     24 N         141.8201  140.9653  164.6073 N.ar    1  UNL1       -0.2340
     25 C         140.7139  139.9955  164.8999 C.ar    1  UNL1        0.0824
     26 C         139.4372  140.4791  165.5214 C.ar    1  UNL1        0.0191
     27 C         138.3311  139.5092  165.8140 C.ar    1  UNL1        0.0015
     28 C         138.5015  138.0556  165.4852 C.ar    1  UNL1        0.0001
     29 C         139.7782  137.5719  164.8637 C.ar    1  UNL1        0.0015
     30 C         140.8843  138.5419  164.5711 C.ar    1  UNL1        0.0191
     31 C         142.9186  141.0934  167.0407 C.3     1  UNL1        0.0459
     32 C         143.2957  142.4281  169.2376 C.3     1  UNL1        0.0004
     33 C         142.4111  142.0358  168.0915 C.3     1  UNL1        0.0059
     34 C         141.0188  142.5860  167.9963 C.3     1  UNL1        0.0004
@<TRIPOS>BOND
     1    32    33    1
     2    33    34    1
     3    33    31    1
     4    31    20    1
     5    20    21   ar
     6    21    22   ar
     7    22    19    1
     8    19     1    1
     9     1     2   am
    10     2     3    2
    11     2     5    1
    12     5     6    1
    13     6     7    1
    14     7     8    1
    15     8     9   am
    16     9    10    2
    17     9    13    1
    18    13    14   ar
    19    14    15   ar
    20    15    16   ar
    21    16    17   ar
    22    17    18   ar
    23     8    11    1
    24    11    12    1
    25    22    23   ar
    26    23    24   ar
    27    24    25    1
    28    25    26   ar
    29    26    27   ar
    30    27    28   ar
    31    28    29   ar
    32    29    30   ar
    33    24    20   ar
    34    30    25   ar
    35    12     5    1
    36    12     6    1
    37    18    13   ar
    38     1     4    1
@<TRIPOS>MOLECULE
*****
 34 38 0 0 0
SMALL
GASTEIGER

@<TRIPOS>ATOM
      1 N         142.5905  142.1339  160.8010 N.am    1  UNL1       -0.2991
      2 C         142.3443  143.6098  160.6947 C.2     1  UNL1        0.2224
      3 O         142.8606  144.5347  161.7569 O.2     1  UNL1       -0.2751
      4 H         142.2517  141.5269  160.1039 H       1  UNL1        0.1498
      5 C         141.5818  144.1607  159.5263 C.3     1  UNL1        0.0799
      6 C         140.5138  144.0091  158.4841 C.3     1  UNL1        0.0306
      7 C         139.5366  144.1444  157.3542 C.3     1  UNL1        0.0942
      8 N         139.7482  145.4856  156.7166 N.am    1  UNL1       -0.2761
      9 C         138.9857  146.0366  155.5482 C.2     1  UNL1        0.2490
     10 O         137.8982  145.2230  154.9114 O.2     1  UNL1       -0.2699
     11 C         140.8561  146.1791  157.4525 C.3     1  UNL1        0.0942
     12 C         141.3293  145.2666  158.5449 C.3     1  UNL1        0.0306
     13 C         139.3107  147.4010  155.0167 C.ar    1  UNL1        0.0536
     14 C         140.2101  147.5472  153.8252 C.ar    1  UNL1        0.0045
     15 C         140.5351  148.9117  153.2937 C.ar    1  UNL1        0.0001
     16 C         139.9606  150.1301  153.9536 C.ar    1  UNL1        0.0000
     17 C         139.0611  149.9839  155.1451 C.ar    1  UNL1        0.0001
     18 C         138.7361  148.6194  155.6767 C.ar    1  UNL1        0.0045
     19 C         143.3531  141.5831  161.9694 C.3     1  UNL1        0.1376
     20 C         140.9868  141.2970  165.0328 C.ar    1  UNL1        0.0617
     21 C         141.2066  141.4483  163.5568 C.ar    1  UNL1        0.0329
     22 C         142.6856  141.4528  163.3063 C.ar    1  UNL1        0.0999
     23 N         143.3798  141.3042  164.6277 N.ar    1  UNL1       -0.1681
     24 N         142.3298  141.2079  165.6947 N.ar    1  UNL1       -0.2340
     25 C         142.5793  141.0502  167.1653 C.ar    1  UNL1        0.0824
     26 C         142.4350  139.7037  167.8104 C.ar    1  UNL1        0.0191
     27 C         142.6845  139.5460  169.2811 C.ar    1  UNL1        0.0015
     28 C         143.0784  140.7349  170.1068 C.ar    1  UNL1        0.0001
     29 C         143.2227  142.0813  169.4617 C.ar    1  UNL1        0.0015
     30 C         142.9732  142.2390  167.9910 C.ar    1  UNL1        0.0191
     31 C         139.6573  141.2440  165.7254 C.3     1  UNL1        0.0459
     32 C         138.9172  139.6135  167.6079 C.3     1  UNL1        0.0004
     33 C         139.0849  139.9241  166.1500 C.3     1  UNL1        0.0059
     34 C         138.6802  138.9148  165.1167 C.3     1  UNL1        0.0004
@<TRIPOS>BOND
     1    32    33    1
     2    33    34    1
     3    33    31    1
     4    31    20    1
     5    20    21   ar
     6    21    22   ar
     7    22    19    1
     8    19     1    1
     9     1     2   am
    10     2     3    2
    11     2     5    1
    12     5     6    1
    13     6     7    1
    14     7     8    1
    15     8     9   am
    16     9    10    2
    17     9    13    1
    18    13    14   ar
    19    14    15   ar
    20    15    16   ar
    21    16    17   ar
    22    17    18   ar
    23     8    11    1
    24    11    12    1
    25    22    23   ar
    26    23    24   ar
    27    24    25    1
    28    25    26   ar
    29    26    27   ar
    30    27    28   ar
    31    28    29   ar
    32    29    30   ar
    33    24    20   ar
    34    30    25   ar
    35    12     5    1
    36    12     6    1
    37    18    13   ar
    38     1     4    1
@<TRIPOS>MOLECULE
*****
 34 38 0 0 0
SMALL
GASTEIGER

@<TRIPOS>ATOM
      1 N         144.2050  142.1764  162.3994 N.am    1  UNL1       -0.2991
      2 C         143.6762  142.6911  161.0935 C.2     1  UNL1        0.2224
      3 O         143.0533  144.0538  161.0212 O.2     1  UNL1       -0.2751
      4 H         144.6138  141.2821  162.4468 H       1  UNL1        0.1498
      5 C         143.7702  141.8431  159.8597 C.3     1  UNL1        0.0799
      6 C         144.2972  141.6212  158.4730 C.3     1  UNL1        0.0306
      7 C         144.6620  141.1315  157.1030 C.3     1  UNL1        0.0942
      8 N         143.9963  139.8038  156.8928 N.am    1  UNL1       -0.2761
      9 C         144.0904  138.9558  155.6591 C.2     1  UNL1        0.2490
     10 O         144.9091  139.4195  154.4909 O.2     1  UNL1       -0.2699
     11 C         143.2201  139.4730  158.1330 C.3     1  UNL1        0.0942
     12 C         143.4060  140.5962  159.1096 C.3     1  UNL1        0.0306
     13 C         143.3656  137.6442  155.5936 C.ar    1  UNL1        0.0536
     14 C         144.1393  136.3592  155.5888 C.ar    1  UNL1        0.0045
     15 C         143.4146  135.0475  155.5232 C.ar    1  UNL1        0.0001
     16 C         141.9161  135.0208  155.4625 C.ar    1  UNL1        0.0000
     17 C         141.1423  136.3059  155.4673 C.ar    1  UNL1        0.0001
     18 C         141.8671  137.6176  155.5328 C.ar    1  UNL1        0.0045
     19 C         144.1109  143.0245  163.6331 C.3     1  UNL1        0.1376
     20 C         140.5803  143.4353  165.1923 C.ar    1  UNL1        0.0617
     21 C         141.5656  143.6992  164.0926 C.ar    1  UNL1        0.0329
     22 C         142.8541  143.0205  164.4519 C.ar    1  UNL1        0.0999
     23 N         142.6651  142.3370  165.7737 N.ar    1  UNL1       -0.1681
     24 N         141.2597  142.5934  166.2313 N.ar    1  UNL1       -0.2340
     25 C         140.6424  142.0953  167.5043 C.ar    1  UNL1        0.0824
     26 C         140.6213  142.9723  168.7210 C.ar    1  UNL1        0.0191
     27 C         140.0040  142.4741  169.9941 C.ar    1  UNL1        0.0015
     28 C         139.4076  141.0988  170.0505 C.ar    1  UNL1        0.0001
     29 C         139.4287  140.2218  168.8338 C.ar    1  UNL1        0.0015
     30 C         140.0461  140.7200  167.5607 C.ar    1  UNL1        0.0191
     31 C         139.1641  143.9269  165.2440 C.3     1  UNL1        0.0459
     32 C         137.7292  144.4206  163.1351 C.3     1  UNL1        0.0004
     33 C         138.1751  143.4750  164.2108 C.3     1  UNL1        0.0059
     34 C         137.6318  142.0774  164.2532 C.3     1  UNL1        0.0004
@<TRIPOS>BOND
     1    32    33    1
     2    33    34    1
     3    33    31    1
     4    31    20    1
     5    20    21   ar
     6    21    22   ar
     7    22    19    1
     8    19     1    1
     9     1     2   am
    10     2     3    2
    11     2     5    1
    12     5     6    1
    13     6     7    1
    14     7     8    1
    15     8     9   am
    16     9    10    2
    17     9    13    1
    18    13    14   ar
    19    14    15   ar
    20    15    16   ar
    21    16    17   ar
    22    17    18   ar
    23     8    11    1
    24    11    12    1
    25    22    23   ar
    26    23    24   ar
    27    24    25    1
    28    25    26   ar
    29    26    27   ar
    30    27    28   ar
    31    28    29   ar
    32    29    30   ar
    33    24    20   ar
    34    30    25   ar
    35    12     5    1
    36    12     6    1
    37    18    13   ar
    38     1     4    1
@<TRIPOS>MOLECULE
*****
 34 38 0 0 0
SMALL
GASTEIGER

@<TRIPOS>ATOM
      1 N         139.4305  144.9283  162.7404 N.am    1  UNL1       -0.2991
      2 C         140.5772  144.7035  161.7998 C.2     1  UNL1        0.2224
      3 O         141.9420  144.3959  162.3411 O.2     1  UNL1       -0.2751
      4 H         138.5348  145.1301  162.3852 H       1  UNL1        0.1498
      5 C         140.3592  144.7863  160.3181 C.3     1  UNL1        0.0799
      6 C         139.9254  144.1492  159.0313 C.3     1  UNL1        0.0306
      7 C         139.5666  143.7898  157.6199 C.3     1  UNL1        0.0942
      8 N         139.8349  144.9854  156.7547 N.am    1  UNL1       -0.2761
      9 C         139.6169  145.0682  155.2729 C.2     1  UNL1        0.2490
     10 O         139.0835  143.8819  154.5259 O.2     1  UNL1       -0.2699
     11 C         140.3594  146.0837  157.6314 C.3     1  UNL1        0.0942
     12 C         140.4154  145.5669  159.0384 C.3     1  UNL1        0.0306
     13 C         139.9322  146.3374  154.5382 C.ar    1  UNL1        0.0536
     14 C         139.2747  147.6227  154.9451 C.ar    1  UNL1        0.0045
     15 C         139.5901  148.8919  154.2104 C.ar    1  UNL1        0.0001
     16 C         140.5629  148.8757  153.0687 C.ar    1  UNL1        0.0000
     17 C         141.2204  147.5903  152.6619 C.ar    1  UNL1        0.0001
     18 C         140.9051  146.3211  153.3966 C.ar    1  UNL1        0.0045
     19 C         139.6486  144.8454  164.2221 C.3     1  UNL1        0.1376
     20 C         139.0249  141.2336  165.4990 C.ar    1  UNL1        0.0617
     21 C         138.7305  142.3565  164.5491 C.ar    1  UNL1        0.0329
     22 C         139.6125  143.5141  164.9122 C.ar    1  UNL1        0.0999
     23 N         140.4521  143.1066  166.0865 N.ar    1  UNL1       -0.1681
     24 N         140.0889  141.6971  166.4492 N.ar    1  UNL1       -0.2340
     25 C         140.6851  140.8925  167.5659 C.ar    1  UNL1        0.0824
     26 C         142.0112  140.2169  167.3786 C.ar    1  UNL1        0.0191
     27 C         142.6073  139.4124  168.4955 C.ar    1  UNL1        0.0015
     28 C         141.8775  139.2834  169.7996 C.ar    1  UNL1        0.0001
     29 C         140.5515  139.9591  169.9869 C.ar    1  UNL1        0.0015
     30 C         139.9553  140.7636  168.8701 C.ar    1  UNL1        0.0191
     31 C         138.3702  139.8839  165.4988 C.3     1  UNL1        0.0459
     32 C         139.5774  137.6398  164.9921 C.3     1  UNL1        0.0004
     33 C         138.8091  138.8376  164.5177 C.3     1  UNL1        0.0059
     34 C         138.4797  138.9890  163.0621 C.3     1  UNL1        0.0004
@<TRIPOS>BOND
     1    32    33    1
     2    33    34    1
     3    33    31    1
     4    31    20    1
     5    20    21   ar
     6    21    22   ar
     7    22    19    1
     8    19     1    1
     9     1     2   am
    10     2     3    2
    11     2     5    1
    12     5     6    1
    13     6     7    1
    14     7     8    1
    15     8     9   am
    16     9    10    2
    17     9    13    1
    18    13    14   ar
    19    14    15   ar
    20    15    16   ar
    21    16    17   ar
    22    17    18   ar
    23     8    11    1
    24    11    12    1
    25    22    23   ar
    26    23    24   ar
    27    24    25    1
    28    25    26   ar
    29    26    27   ar
    30    27    28   ar
    31    28    29   ar
    32    29    30   ar
    33    24    20   ar
    34    30    25   ar
    35    12     5    1
    36    12     6    1
    37    18    13   ar
    38     1     4    1
@<TRIPOS>MOLECULE
*****
 34 38 0 0 0
SMALL
GASTEIGER

@<TRIPOS>ATOM
      1 N         142.6155  136.2805  157.1713 N.am    1  UNL1       -0.2991
      2 C         143.6018  135.5611  156.2998 C.2     1  UNL1        0.2224
      3 O         144.6733  136.3310  155.5860 O.2     1  UNL1       -0.2751
      4 H         141.9123  135.7752  157.6397 H       1  UNL1        0.1498
      5 C         143.5169  134.0718  156.1420 C.3     1  UNL1        0.0799
      6 C         144.1746  132.7578  155.8407 C.3     1  UNL1        0.0306
      7 C         144.5458  131.3265  155.5888 C.3     1  UNL1        0.0942
      8 N         143.3126  130.4904  155.7626 N.am    1  UNL1       -0.2761
      9 C         143.2276  129.0012  155.6048 C.2     1  UNL1        0.2490
     10 O         144.4517  128.2145  155.2407 O.2     1  UNL1       -0.2699
     11 C         142.1792  131.4050  156.1219 C.3     1  UNL1        0.0942
     12 C         142.7120  132.8064  156.1701 C.3     1  UNL1        0.0306
     13 C         141.9185  128.2986  155.8112 C.ar    1  UNL1        0.0536
     14 C         141.7200  127.4193  157.0102 C.ar    1  UNL1        0.0045
     15 C         140.4109  126.7167  157.2166 C.ar    1  UNL1        0.0001
     16 C         139.3002  126.8934  156.2240 C.ar    1  UNL1        0.0000
     17 C         139.4987  127.7727  155.0250 C.ar    1  UNL1        0.0001
     18 C         140.8078  128.4753  154.8186 C.ar    1  UNL1        0.0045
     19 C         142.7005  137.7698  157.3290 C.3     1  UNL1        0.1376
     20 C         141.7491  139.2079  160.8063 C.ar    1  UNL1        0.0617
     21 C         141.3715  138.5456  159.5146 C.ar    1  UNL1        0.0329
     22 C         142.6170  138.3853  158.6943 C.ar    1  UNL1        0.0999
     23 N         143.7645  138.9487  159.4791 N.ar    1  UNL1       -0.1681
     24 N         143.2280  139.4571  160.7845 N.ar    1  UNL1       -0.2340
     25 C         144.0298  140.1015  161.8761 C.ar    1  UNL1        0.0824
     26 C         144.3018  139.3543  163.1481 C.ar    1  UNL1        0.0191
     27 C         145.1036  139.9988  164.2397 C.ar    1  UNL1        0.0015
     28 C         145.6336  141.3905  164.0595 C.ar    1  UNL1        0.0001
     29 C         145.3616  142.1376  162.7876 C.ar    1  UNL1        0.0015
     30 C         144.5598  141.4932  161.6960 C.ar    1  UNL1        0.0191
     31 C         140.8122  139.5594  161.9238 C.3     1  UNL1        0.0459
     32 C         141.1105  137.3306  163.2251 C.3     1  UNL1        0.0004
     33 C         140.2454  138.4783  162.7955 C.3     1  UNL1        0.0059
     34 C         138.8136  138.5448  163.2377 C.3     1  UNL1        0.0004
@<TRIPOS>BOND
     1    32    33    1
     2    33    34    1
     3    33    31    1
     4    31    20    1
     5    20    21   ar
     6    21    22   ar
     7    22    19    1
     8    19     1    1
     9     1     2   am
    10     2     3    2
    11     2     5    1
    12     5     6    1
    13     6     7    1
    14     7     8    1
    15     8     9   am
    16     9    10    2
    17     9    13    1
    18    13    14   ar
    19    14    15   ar
    20    15    16   ar
    21    16    17   ar
    22    17    18   ar
    23     8    11    1
    24    11    12    1
    25    22    23   ar
    26    23    24   ar
    27    24    25    1
    28    25    26   ar
    29    26    27   ar
    30    27    28   ar
    31    28    29   ar
    32    29    30   ar
    33    24    20   ar
    34    30    25   ar
    35    12     5    1
    36    12     6    1
    37    18    13   ar
    38     1     4    1
@<TRIPOS>MOLECULE
*****
 34 38 0 0 0
SMALL
GASTEIGER

@<TRIPOS>ATOM
      1 N         141.3885  138.2123  158.1758 N.am    1  UNL1       -0.2991
      2 C         142.5992  137.7806  157.4025 C.2     1  UNL1        0.2224
      3 O         143.7056  138.7574  157.1345 O.2     1  UNL1       -0.2751
      4 H         140.6624  137.5713  158.3517 H       1  UNL1        0.1498
      5 C         142.7034  136.3722  156.8972 C.3     1  UNL1        0.0799
      6 C         143.4563  135.0782  156.8031 C.3     1  UNL1        0.0306
      7 C         143.9650  133.6928  156.5348 C.3     1  UNL1        0.0942
      8 N         142.9542  132.9850  155.6820 N.am    1  UNL1       -0.2761
      9 C         143.0584  131.5765  155.1767 C.2     1  UNL1        0.2490
     10 O         144.2582  130.7438  155.5190 O.2     1  UNL1       -0.2699
     11 C         141.8208  133.9329  155.4232 C.3     1  UNL1        0.0942
     12 C         142.1311  135.2266  156.1161 C.3     1  UNL1        0.0306
     13 C         141.9630  131.0008  154.3291 C.ar    1  UNL1        0.0536
     14 C         140.8736  130.1871  154.9624 C.ar    1  UNL1        0.0045
     15 C         139.7781  129.6114  154.1148 C.ar    1  UNL1        0.0001
     16 C         139.7720  129.8493  152.6338 C.ar    1  UNL1        0.0000
     17 C         140.8615  130.6631  152.0004 C.ar    1  UNL1        0.0001
     18 C         141.9569  131.2388  152.8481 C.ar    1  UNL1        0.0045
     19 C         141.2844  139.6209  158.6810 C.3     1  UNL1        0.1376
     20 C         139.1432  139.6427  161.9183 C.ar    1  UNL1        0.0617
     21 C         139.7117  138.9281  160.7284 C.ar    1  UNL1        0.0329
     22 C         140.5337  139.9098  159.9471 C.ar    1  UNL1        0.0999
     23 N         140.4732  141.2313  160.6542 N.ar    1  UNL1       -0.1681
     24 N         139.6137  141.0662  161.8726 N.ar    1  UNL1       -0.2340
     25 C         139.2831  142.1367  162.8698 C.ar    1  UNL1        0.0824
     26 C         140.2148  142.4105  164.0130 C.ar    1  UNL1        0.0191
     27 C         139.8841  143.4810  165.0102 C.ar    1  UNL1        0.0015
     28 C         138.6215  144.2778  164.8644 C.ar    1  UNL1        0.0001
     29 C         137.6898  144.0040  163.7213 C.ar    1  UNL1        0.0015
     30 C         138.0205  142.9335  162.7240 C.ar    1  UNL1        0.0191
     31 C         138.2592  139.0397  162.9696 C.3     1  UNL1        0.0459
     32 C         138.2927  139.6149  165.5030 C.3     1  UNL1        0.0004
     33 C         138.7938  138.7968  164.3499 C.3     1  UNL1        0.0059
     34 C         139.8294  137.7357  164.5772 C.3     1  UNL1        0.0004
@<TRIPOS>BOND
     1    32    33    1
     2    33    34    1
     3    33    31    1
     4    31    20    1
     5    20    21   ar
     6    21    22   ar
     7    22    19    1
     8    19     1    1
     9     1     2   am
    10     2     3    2
    11     2     5    1
    12     5     6    1
    13     6     7    1
    14     7     8    1
    15     8     9   am
    16     9    10    2
    17     9    13    1
    18    13    14   ar
    19    14    15   ar
    20    15    16   ar
    21    16    17   ar
    22    17    18   ar
    23     8    11    1
    24    11    12    1
    25    22    23   ar
    26    23    24   ar
    27    24    25    1
    28    25    26   ar
    29    26    27   ar
    30    27    28   ar
    31    28    29   ar
    32    29    30   ar
    33    24    20   ar
    34    30    25   ar
    35    12     5    1
    36    12     6    1
    37    18    13   ar
    38     1     4    1
@<TRIPOS>MOLECULE
*****
 34 38 0 0 0
SMALL
GASTEIGER

@<TRIPOS>ATOM
      1 N         143.3513  138.6027  159.3551 N.am    1  UNL1       -0.2991
      2 C         142.5250  138.4917  158.1082 C.2     1  UNL1        0.2224
      3 O         141.6438  139.6308  157.6885 O.2     1  UNL1       -0.2751
      4 H         143.9297  137.8551  159.6306 H       1  UNL1        0.1498
      5 C         142.5797  137.2416  157.2810 C.3     1  UNL1        0.0799
      6 C         142.4586  136.5572  155.9517 C.3     1  UNL1        0.0306
      7 C         142.4065  135.6144  154.7862 C.3     1  UNL1        0.0942
      8 N         142.7113  134.2354  155.2916 N.am    1  UNL1       -0.2761
      9 C         142.7661  132.9853  154.4643 C.2     1  UNL1        0.2490
     10 O         142.5015  133.0499  152.9893 O.2     1  UNL1       -0.2699
     11 C         142.9519  134.3259  156.7694 C.3     1  UNL1        0.0942
     12 C         142.7957  135.7609  157.1774 C.3     1  UNL1        0.0306
     13 C         143.0854  131.6707  155.1121 C.ar    1  UNL1        0.0536
     14 C         144.4907  131.3669  155.5397 C.ar    1  UNL1        0.0045
     15 C         144.8099  130.0522  156.1875 C.ar    1  UNL1        0.0001
     16 C         143.7239  129.0412  156.4078 C.ar    1  UNL1        0.0000
     17 C         142.3185  129.3451  155.9802 C.ar    1  UNL1        0.0001
     18 C         141.9993  130.6598  155.3324 C.ar    1  UNL1        0.0045
     19 C         143.2965  139.8528  160.1823 C.3     1  UNL1        0.1376
     20 C         140.0621  139.8204  162.3277 C.ar    1  UNL1        0.0617
     21 C         141.0561  139.1250  161.4454 C.ar    1  UNL1        0.0329
     22 C         142.1090  140.1208  161.0586 C.ar    1  UNL1        0.0999
     23 N         141.7658  141.4317  161.7018 N.ar    1  UNL1       -0.1681
     24 N         140.5007  141.2460  162.4863 N.ar    1  UNL1       -0.2340
     25 C         139.7978  142.3007  163.2883 C.ar    1  UNL1        0.0824
     26 C         140.3829  142.7693  164.5875 C.ar    1  UNL1        0.0191
     27 C         139.6799  143.8241  165.3895 C.ar    1  UNL1        0.0015
     28 C         138.3918  144.4104  164.8923 C.ar    1  UNL1        0.0001
     29 C         137.8067  143.9418  163.5931 C.ar    1  UNL1        0.0015
     30 C         138.5097  142.8870  162.7911 C.ar    1  UNL1        0.0191
     31 C         138.8435  139.1992  162.9435 C.3     1  UNL1        0.0459
     32 C         138.1853  139.8150  165.3802 C.3     1  UNL1        0.0004
     33 C         138.8271  138.8710  164.4070 C.3     1  UNL1        0.0059
     34 C         139.4525  137.5988  164.8975 C.3     1  UNL1        0.0004
@<TRIPOS>BOND
     1    32    33    1
     2    33    34    1
     3    33    31    1
     4    31    20    1
     5    20    21   ar
     6    21    22   ar
     7    22    19    1
     8    19     1    1
     9     1     2   am
    10     2     3    2
    11     2     5    1
    12     5     6    1
    13     6     7    1
    14     7     8    1
    15     8     9   am
    16     9    10    2
    17     9    13    1
    18    13    14   ar
    19    14    15   ar
    20    15    16   ar
    21    16    17   ar
    22    17    18   ar
    23     8    11    1
    24    11    12    1
    25    22    23   ar
    26    23    24   ar
    27    24    25    1
    28    25    26   ar
    29    26    27   ar
    30    27    28   ar
    31    28    29   ar
    32    29    30   ar
    33    24    20   ar
    34    30    25   ar
    35    12     5    1
    36    12     6    1
    37    18    13   ar
    38     1     4    1
@<TRIPOS>MOLECULE
*****
 34 38 0 0 0
SMALL
GASTEIGER

@<TRIPOS>ATOM
      1 N         140.1916  144.9469  161.7767 N.am    1  UNL1       -0.2991
      2 C         140.9923  144.6119  160.5534 C.2     1  UNL1        0.2224
      3 O         142.4910  144.6505  160.6041 O.2     1  UNL1       -0.2751
      4 H         139.2080  144.9216  161.7435 H       1  UNL1        0.1498
      5 C         140.2943  144.2383  159.2793 C.3     1  UNL1        0.0799
      6 C         140.0418  144.4729  157.8194 C.3     1  UNL1        0.0306
      7 C         139.5955  144.4626  156.3874 C.3     1  UNL1        0.0942
      8 N         138.6160  143.3397  156.2153 N.am    1  UNL1       -0.2761
      9 C         137.9181  142.9661  154.9412 C.2     1  UNL1        0.2490
     10 O         138.1785  143.7462  153.6868 O.2     1  UNL1       -0.2699
     11 C         138.4569  142.6560  157.5409 C.3     1  UNL1        0.0942
     12 C         139.3381  143.3564  158.5323 C.3     1  UNL1        0.0306
     13 C         136.9597  141.8123  154.9215 C.ar    1  UNL1        0.0536
     14 C         135.5147  142.0317  155.2589 C.ar    1  UNL1        0.0045
     15 C         134.5564  140.8779  155.2392 C.ar    1  UNL1        0.0001
     16 C         135.0430  139.5047  154.8822 C.ar    1  UNL1        0.0000
     17 C         136.4881  139.2853  154.5448 C.ar    1  UNL1        0.0001
     18 C         137.4464  140.4391  154.5645 C.ar    1  UNL1        0.0045
     19 C         140.8896  145.3206  163.0508 C.3     1  UNL1        0.1376
     20 C         142.3491  142.5359  165.3269 C.ar    1  UNL1        0.0617
     21 C         142.4678  143.4696  164.1590 C.ar    1  UNL1        0.0329
     22 C         141.2004  144.2672  164.0724 C.ar    1  UNL1        0.0999
     23 N         140.2983  143.8263  165.1868 N.ar    1  UNL1       -0.1681
     24 N         141.0083  142.7562  165.9621 N.ar    1  UNL1       -0.2340
     25 C         140.4716  142.0336  167.1619 C.ar    1  UNL1        0.0824
     26 C         140.5104  142.6880  168.5111 C.ar    1  UNL1        0.0191
     27 C         139.9736  141.9652  169.7109 C.ar    1  UNL1        0.0015
     28 C         139.3980  140.5881  169.5616 C.ar    1  UNL1        0.0001
     29 C         139.3592  139.9337  168.2124 C.ar    1  UNL1        0.0015
     30 C         139.8960  140.6564  167.0126 C.ar    1  UNL1        0.0191
     31 C         143.3887  141.5541  165.7800 C.3     1  UNL1        0.0459
     32 C         142.8146  139.1246  165.0602 C.3     1  UNL1        0.0004
     33 C         143.6863  140.3404  164.9503 C.3     1  UNL1        0.0059
     34 C         144.8556  140.3424  164.0107 C.3     1  UNL1        0.0004
@<TRIPOS>BOND
     1    32    33    1
     2    33    34    1
     3    33    31    1
     4    31    20    1
     5    20    21   ar
     6    21    22   ar
     7    22    19    1
     8    19     1    1
     9     1     2   am
    10     2     3    2
    11     2     5    1
    12     5     6    1
    13     6     7    1
    14     7     8    1
    15     8     9   am
    16     9    10    2
    17     9    13    1
    18    13    14   ar
    19    14    15   ar
    20    15    16   ar
    21    16    17   ar
    22    17    18   ar
    23     8    11    1
    24    11    12    1
    25    22    23   ar
    26    23    24   ar
    27    24    25    1
    28    25    26   ar
    29    26    27   ar
    30    27    28   ar
    31    28    29   ar
    32    29    30   ar
    33    24    20   ar
    34    30    25   ar
    35    12     5    1
    36    12     6    1
    37    18    13   ar
    38     1     4    1
