@<TRIPOS>MOLECULE
*****
 36 39 0 0 0
SMALL
GASTEIGER

@<TRIPOS>ATOM
      1 C         143.4899  141.9421  158.7956 C.ar    1  UNL1        0.1194
      2 C         143.5233  140.8062  159.7747 C.ar    1  UNL1        0.1452
      3 N         144.0153  139.4570  159.3417 N.pl3   1  UNL1       -0.3415
      4 N         143.0646  141.0195  161.1868 N.ar    1  UNL1       -0.1940
      5 C         142.5725  142.3686  161.6199 C.ar    1  UNL1        0.2554
      6 N         142.5392  143.5046  160.6408 N.ar    1  UNL1       -0.1940
      7 C         142.9979  143.2913  159.2286 C.ar    1  UNL1        0.1452
      8 N         142.9645  144.4272  158.2496 N.pl3   1  UNL1       -0.3415
      9 H         144.3164  139.3170  158.4148 H       1  UNL1        0.1438
     10 H         144.0372  138.7115  159.9843 H       1  UNL1        0.1438
     11 H         142.6415  145.3127  158.5339 H       1  UNL1        0.1438
     12 H         143.2655  144.2873  157.3228 H       1  UNL1        0.1438
     13 N         142.1138  142.5819  163.0320 N.ar    1  UNL1       -0.1967
     14 N         142.8507  142.1663  164.2707 N.ar    1  UNL1       -0.1666
     15 C         142.0299  142.5758  165.4576 C.ar    1  UNL1        0.0849
     16 C         140.7859  143.2446  164.9525 C.ar    1  UNL1        0.0334
     17 C         139.6126  143.8505  165.6639 C.ar    1  UNL1        0.0027
     18 C         138.4911  144.4603  164.8762 C.ar    1  UNL1        0.0001
     19 C         138.5430  144.4640  163.3771 C.ar    1  UNL1        0.0015
     20 C         139.7163  143.8581  162.6657 C.ar    1  UNL1        0.0193
     21 C         140.8377  143.2483  163.4534 C.ar    1  UNL1        0.0870
     22 C         142.3900  142.3554  166.8969 C.3     1  UNL1        0.0762
     23 C         141.3494  141.8767  167.8656 C.ar    1  UNL1        0.0135
     24 C         140.9000  142.7685  168.9849 C.ar    1  UNL1        0.0280
     25 C         139.8595  142.2900  169.9535 C.ar    1  UNL1        0.1400
     26 F         139.4100  143.1817  171.0727 F       1  UNL1       -0.2042
     27 C         139.2684  140.9196  169.8028 C.ar    1  UNL1        0.0319
     28 C         139.7178  140.0278  168.6835 C.ar    1  UNL1        0.0316
     29 C         140.7584  140.5064  167.7149 C.ar    1  UNL1        0.1366
     30 F         141.2078  139.6146  166.5957 F       1  UNL1       -0.2045
     31 C         145.3398  142.1182  156.9800 C.2     1  UNL1        0.4090
     32 O         146.2723  142.7210  157.9885 O.2     1  UNL1       -0.2258
     33 N         143.9486  141.7288  157.3835 N.am    1  UNL1       -0.2181
     34 C         143.0161  141.1260  156.3749 C.3     1  UNL1        0.1237
     35 C         147.2605  141.7507  155.2693 C.3     1  UNL1        0.2574
     36 O         145.7986  141.9050  155.5678 O.3     1  UNL1       -0.4302
@<TRIPOS>BOND
     1    35    36    1
     2    36    31    1
     3    31    32    2
     4    31    33   am
     5    33    34    1
     6    33     1    1
     7     1     2   ar
     8     2     3    1
     9     2     4   ar
    10     4     5   ar
    11     5    13    1
    12    13    14   ar
    13    14    15   ar
    14    15    22    1
    15    22    23    1
    16    23    24   ar
    17    24    25   ar
    18    25    26    1
    19    25    27   ar
    20    27    28   ar
    21    28    29   ar
    22    29    30    1
    23    15    16   ar
    24    16    17   ar
    25    17    18   ar
    26    18    19   ar
    27    19    20   ar
    28    20    21   ar
    29     5     6   ar
    30     6     7   ar
    31     7     8    1
    32     7     1   ar
    33    21    13   ar
    34    29    23   ar
    35    21    16   ar
    36     3     9    1
    37     3    10    1
    38     8    11    1
    39     8    12    1
@<TRIPOS>MOLECULE
*****
 36 39 0 0 0
SMALL
GASTEIGER

@<TRIPOS>ATOM
      1 C         142.4084  139.2630  160.1620 C.ar    1  UNL1        0.1194
      2 C         141.0898  139.9702  160.2679 C.ar    1  UNL1        0.1452
      3 N         140.3551  140.3770  159.0251 N.pl3   1  UNL1       -0.3415
      4 N         140.5060  140.2704  161.6166 N.ar    1  UNL1       -0.1940
      5 C         141.2406  139.8636  162.8594 C.ar    1  UNL1        0.2554
      6 N         142.5593  139.1564  162.7535 N.ar    1  UNL1       -0.1940
      7 C         143.1432  138.8562  161.4048 C.ar    1  UNL1        0.1452
      8 N         144.4618  138.1490  161.2990 N.pl3   1  UNL1       -0.3415
      9 H         140.7383  140.1800  158.1399 H       1  UNL1        0.1438
     10 H         139.4896  140.8411  159.0946 H       1  UNL1        0.1438
     11 H         144.9440  137.8820  162.1147 H       1  UNL1        0.1438
     12 H         144.8450  137.9520  160.4138 H       1  UNL1        0.1438
     13 N         140.6568  140.1638  164.2081 N.ar    1  UNL1       -0.1967
     14 N         140.9174  141.3926  165.0279 N.ar    1  UNL1       -0.1666
     15 C         140.1315  141.2761  166.3002 C.ar    1  UNL1        0.0849
     16 C         139.3852  139.9754  166.2667 C.ar    1  UNL1        0.0334
     17 C         138.4520  139.3281  167.2466 C.ar    1  UNL1        0.0027
     18 C         137.8434  137.9934  166.9333 C.ar    1  UNL1        0.0001
     19 C         138.1681  137.3060  165.6403 C.ar    1  UNL1        0.0015
     20 C         139.1013  137.9532  164.6605 C.ar    1  UNL1        0.0193
     21 C         139.7099  139.2879  164.9737 C.ar    1  UNL1        0.0870
     22 C         140.0978  142.2836  167.4111 C.3     1  UNL1        0.0762
     23 C         140.9213  142.0663  168.6459 C.ar    1  UNL1        0.0135
     24 C         142.3898  142.3719  168.6314 C.ar    1  UNL1        0.0280
     25 C         143.2133  142.1546  169.8661 C.ar    1  UNL1        0.1400
     26 F         144.6818  142.4602  169.8516 F       1  UNL1       -0.2042
     27 C         142.5683  141.6318  171.1154 C.ar    1  UNL1        0.0319
     28 C         141.0999  141.3262  171.1299 C.ar    1  UNL1        0.0316
     29 C         140.2763  141.5434  169.8952 C.ar    1  UNL1        0.1366
     30 F         138.8079  141.2379  169.9097 F       1  UNL1       -0.2045
     31 C         143.9041  139.9542  158.1533 C.2     1  UNL1        0.4090
     32 O         144.2320  141.2458  158.8418 O.2     1  UNL1       -0.2258
     33 N         142.9923  138.9628  158.8133 N.am    1  UNL1       -0.2181
     34 C         142.6643  137.6712  158.1247 C.3     1  UNL1        0.1237
     35 C         145.1553  140.7423  156.0170 C.3     1  UNL1        0.2574
     36 O         144.4880  139.6540  156.8045 O.3     1  UNL1       -0.4302
@<TRIPOS>BOND
     1    35    36    1
     2    36    31    1
     3    31    32    2
     4    31    33   am
     5    33    34    1
     6    33     1    1
     7     1     2   ar
     8     2     3    1
     9     2     4   ar
    10     4     5   ar
    11     5    13    1
    12    13    14   ar
    13    14    15   ar
    14    15    22    1
    15    22    23    1
    16    23    24   ar
    17    24    25   ar
    18    25    26    1
    19    25    27   ar
    20    27    28   ar
    21    28    29   ar
    22    29    30    1
    23    15    16   ar
    24    16    17   ar
    25    17    18   ar
    26    18    19   ar
    27    19    20   ar
    28    20    21   ar
    29     5     6   ar
    30     6     7   ar
    31     7     8    1
    32     7     1   ar
    33    21    13   ar
    34    29    23   ar
    35    21    16   ar
    36     3     9    1
    37     3    10    1
    38     8    11    1
    39     8    12    1
@<TRIPOS>MOLECULE
*****
 36 39 0 0 0
SMALL
GASTEIGER

@<TRIPOS>ATOM
      1 C         143.5280  141.9205  158.7669 C.ar    1  UNL1        0.1194
      2 C         143.0137  143.2681  159.1784 C.ar    1  UNL1        0.1452
      3 N         142.9861  144.3946  158.1884 N.pl3   1  UNL1       -0.3415
      4 N         142.5270  143.4891  160.5799 N.ar    1  UNL1       -0.1940
      5 C         142.5545  142.3627  161.5699 C.ar    1  UNL1        0.2554
      6 N         143.0689  141.0150  161.1584 N.ar    1  UNL1       -0.1940
      7 C         143.5556  140.7939  159.7569 C.ar    1  UNL1        0.1452
      8 N         144.0699  139.4463  159.3454 N.pl3   1  UNL1       -0.3415
      9 H         143.3055  144.2495  157.2685 H       1  UNL1        0.1438
     10 H         142.6485  145.2791  158.4585 H       1  UNL1        0.1438
     11 H         144.0880  138.7069  159.9953 H       1  UNL1        0.1438
     12 H         144.3894  139.3011  158.4256 H       1  UNL1        0.1438
     13 N         142.0678  142.5838  162.9714 N.ar    1  UNL1       -0.1967
     14 N         142.7548  142.1299  164.2252 N.ar    1  UNL1       -0.1666
     15 C         141.9202  142.5632  165.3939 C.ar    1  UNL1        0.0849
     16 C         140.7174  143.2848  164.8623 C.ar    1  UNL1        0.0334
     17 C         139.5509  143.9320  165.5482 C.ar    1  UNL1        0.0027
     18 C         138.4756  144.5918  164.7369 C.ar    1  UNL1        0.0001
     19 C         138.5669  144.6046  163.2397 C.ar    1  UNL1        0.0015
     20 C         139.7334  143.9574  162.5538 C.ar    1  UNL1        0.0193
     21 C         140.8086  143.2975  163.3652 C.ar    1  UNL1        0.0870
     22 C         142.2334  142.3179  166.8402 C.3     1  UNL1        0.0762
     23 C         141.1930  141.7233  167.7425 C.ar    1  UNL1        0.0135
     24 C         140.3329  140.5954  167.2544 C.ar    1  UNL1        0.0280
     25 C         139.2925  140.0009  168.1566 C.ar    1  UNL1        0.1400
     26 F         138.4324  138.8730  167.6686 F       1  UNL1       -0.2042
     27 C         139.1122  140.5342  169.5470 C.ar    1  UNL1        0.0319
     28 C         139.9723  141.6620  170.0351 C.ar    1  UNL1        0.0316
     29 C         141.0127  142.2566  169.1329 C.ar    1  UNL1        0.1366
     30 F         141.8728  143.3844  169.6209 F       1  UNL1       -0.2045
     31 C         145.4104  142.0957  156.9849 C.2     1  UNL1        0.4090
     32 O         146.3195  142.7131  158.0059 O.2     1  UNL1       -0.2258
     33 N         144.0147  141.6994  157.3654 N.am    1  UNL1       -0.2181
     34 C         143.1057  141.0820  156.3443 C.3     1  UNL1        0.1237
     35 C         145.8845  143.0054  154.5979 C.3     1  UNL1        0.2574
     36 O         145.8972  141.8747  155.5834 O.3     1  UNL1       -0.4302
@<TRIPOS>BOND
     1    35    36    1
     2    36    31    1
     3    31    32    2
     4    31    33   am
     5    33    34    1
     6    33     1    1
     7     1     2   ar
     8     2     3    1
     9     2     4   ar
    10     4     5   ar
    11     5    13    1
    12    13    14   ar
    13    14    15   ar
    14    15    22    1
    15    22    23    1
    16    23    24   ar
    17    24    25   ar
    18    25    26    1
    19    25    27   ar
    20    27    28   ar
    21    28    29   ar
    22    29    30    1
    23    15    16   ar
    24    16    17   ar
    25    17    18   ar
    26    18    19   ar
    27    19    20   ar
    28    20    21   ar
    29     5     6   ar
    30     6     7   ar
    31     7     8    1
    32     7     1   ar
    33    21    13   ar
    34    29    23   ar
    35    21    16   ar
    36     3     9    1
    37     3    10    1
    38     8    11    1
    39     8    12    1
@<TRIPOS>MOLECULE
*****
 36 39 0 0 0
SMALL
GASTEIGER

@<TRIPOS>ATOM
      1 C         140.5822  144.7567  157.6366 C.ar    1  UNL1        0.1194
      2 C         141.7043  145.4166  158.3818 C.ar    1  UNL1        0.1452
      3 N         142.6110  146.3791  157.6737 N.pl3   1  UNL1       -0.3415
      4 N         141.9196  145.1141  159.8351 N.ar    1  UNL1       -0.1940
      5 C         141.0130  144.1516  160.5433 C.ar    1  UNL1        0.2554
      6 N         139.8908  143.4916  159.7980 N.ar    1  UNL1       -0.1940
      7 C         139.6754  143.7942  158.3447 C.ar    1  UNL1        0.1452
      8 N         138.5533  143.1342  157.5996 N.pl3   1  UNL1       -0.3415
      9 H         142.4696  146.5777  156.7199 H       1  UNL1        0.1438
     10 H         143.3475  146.8123  158.1628 H       1  UNL1        0.1438
     11 H         137.9583  142.5024  158.0644 H       1  UNL1        0.1438
     12 H         138.4120  143.3327  156.6458 H       1  UNL1        0.1438
     13 N         141.2283  143.8491  161.9966 N.ar    1  UNL1       -0.1967
     14 N         142.5171  143.4060  162.6234 N.ar    1  UNL1       -0.1666
     15 C         142.2779  143.2196  164.0924 C.ar    1  UNL1        0.0849
     16 C         140.8415  143.5475  164.3735 C.ar    1  UNL1        0.0334
     17 C         140.0403  143.5421  165.6416 C.ar    1  UNL1        0.0027
     18 C         138.5905  143.9257  165.6144 C.ar    1  UNL1        0.0001
     19 C         137.9418  144.3148  164.3191 C.ar    1  UNL1        0.0015
     20 C         138.7429  144.3202  163.0510 C.ar    1  UNL1        0.0193
     21 C         140.1928  143.9366  163.0782 C.ar    1  UNL1        0.0870
     22 C         143.2965  142.7821  165.1030 C.3     1  UNL1        0.0762
     23 C         143.2905  141.3708  165.6113 C.ar    1  UNL1        0.0135
     24 C         142.6485  141.0509  166.9286 C.ar    1  UNL1        0.0280
     25 C         142.6424  139.6397  167.4370 C.ar    1  UNL1        0.1400
     26 F         142.0004  139.3197  168.7543 F       1  UNL1       -0.2042
     27 C         143.2785  138.5484  166.6279 C.ar    1  UNL1        0.0319
     28 C         143.9205  138.8684  165.3106 C.ar    1  UNL1        0.0316
     29 C         143.9266  140.2795  164.8022 C.ar    1  UNL1        0.1366
     30 F         144.5686  140.5995  163.4849 F       1  UNL1       -0.2045
     31 C         139.6738  146.3255  155.7756 C.2     1  UNL1        0.4090
     32 O         139.1962  147.2892  156.8211 O.2     1  UNL1       -0.2258
     33 N         140.3668  145.0592  156.1833 N.am    1  UNL1       -0.2181
     34 C         140.8444  144.0955  155.1378 C.3     1  UNL1        0.1237
     35 C         140.3667  147.5886  153.6135 C.3     1  UNL1        0.2574
     36 O         139.4584  146.6281  154.3223 O.3     1  UNL1       -0.4302
@<TRIPOS>BOND
     1    35    36    1
     2    36    31    1
     3    31    32    2
     4    31    33   am
     5    33    34    1
     6    33     1    1
     7     1     2   ar
     8     2     3    1
     9     2     4   ar
    10     4     5   ar
    11     5    13    1
    12    13    14   ar
    13    14    15   ar
    14    15    22    1
    15    22    23    1
    16    23    24   ar
    17    24    25   ar
    18    25    26    1
    19    25    27   ar
    20    27    28   ar
    21    28    29   ar
    22    29    30    1
    23    15    16   ar
    24    16    17   ar
    25    17    18   ar
    26    18    19   ar
    27    19    20   ar
    28    20    21   ar
    29     5     6   ar
    30     6     7   ar
    31     7     8    1
    32     7     1   ar
    33    21    13   ar
    34    29    23   ar
    35    21    16   ar
    36     3     9    1
    37     3    10    1
    38     8    11    1
    39     8    12    1
@<TRIPOS>MOLECULE
*****
 36 39 0 0 0
SMALL
GASTEIGER

@<TRIPOS>ATOM
      1 C         140.5347  144.6824  157.8195 C.ar    1  UNL1        0.1194
      2 C         141.7103  145.3025  158.5149 C.ar    1  UNL1        0.1452
      3 N         142.5716  146.2949  157.7916 N.pl3   1  UNL1       -0.3415
      4 N         142.0245  144.9302  159.9336 N.ar    1  UNL1       -0.1940
      5 C         141.1632  143.9378  160.6569 C.ar    1  UNL1        0.2554
      6 N         139.9876  143.3177  159.9615 N.ar    1  UNL1       -0.1940
      7 C         139.6734  143.6900  158.5428 C.ar    1  UNL1        0.1452
      8 N         138.4979  143.0698  157.8475 N.pl3   1  UNL1       -0.3415
      9 H         142.3654  146.5393  156.8604 H       1  UNL1        0.1438
     10 H         143.3431  146.7020  158.2479 H       1  UNL1        0.1438
     11 H         137.9326  142.4185  158.3223 H       1  UNL1        0.1438
     12 H         138.2916  143.3142  156.9164 H       1  UNL1        0.1438
     13 N         141.4775  143.5655  162.0756 N.ar    1  UNL1       -0.1967
     14 N         140.5458  143.6839  163.2452 N.ar    1  UNL1       -0.1666
     15 C         141.2711  143.2010  164.4662 C.ar    1  UNL1        0.0849
     16 C         142.6510  142.7842  164.0512 C.ar    1  UNL1        0.0334
     17 C         143.8078  142.2286  164.8277 C.ar    1  UNL1        0.0027
     18 C         145.0921  141.8983  164.1268 C.ar    1  UNL1        0.0001
     19 C         145.2196  142.1236  162.6493 C.ar    1  UNL1        0.0015
     20 C         144.0629  142.6792  161.8728 C.ar    1  UNL1        0.0193
     21 C         142.7785  143.0095  162.5737 C.ar    1  UNL1        0.0870
     22 C         140.7143  143.1447  165.8579 C.3     1  UNL1        0.0762
     23 C         140.1004  141.8752  166.3694 C.ar    1  UNL1        0.0135
     24 C         139.3917  140.9508  165.4242 C.ar    1  UNL1        0.0280
     25 C         138.7779  139.6813  165.9356 C.ar    1  UNL1        0.1400
     26 F         138.0692  138.7570  164.9904 F       1  UNL1       -0.2042
     27 C         138.8729  139.3362  167.3923 C.ar    1  UNL1        0.0319
     28 C         139.5816  140.2605  168.3374 C.ar    1  UNL1        0.0316
     29 C         140.1954  141.5300  167.8260 C.ar    1  UNL1        0.1366
     30 F         140.9041  142.4543  168.7712 F       1  UNL1       -0.2045
     31 C         139.5463  146.3604  156.0999 C.2     1  UNL1        0.4090
     32 O         139.1862  147.2937  157.2176 O.2     1  UNL1       -0.2258
     33 N         140.2205  145.0547  156.4008 N.am    1  UNL1       -0.2181
     34 C         140.5806  144.1214  155.2831 C.3     1  UNL1        0.1237
     35 C         140.0613  147.7641  153.9752 C.3     1  UNL1        0.2574
     36 O         139.2320  146.7328  154.6812 O.3     1  UNL1       -0.4302
@<TRIPOS>BOND
     1    35    36    1
     2    36    31    1
     3    31    32    2
     4    31    33   am
     5    33    34    1
     6    33     1    1
     7     1     2   ar
     8     2     3    1
     9     2     4   ar
    10     4     5   ar
    11     5    13    1
    12    13    14   ar
    13    14    15   ar
    14    15    22    1
    15    22    23    1
    16    23    24   ar
    17    24    25   ar
    18    25    26    1
    19    25    27   ar
    20    27    28   ar
    21    28    29   ar
    22    29    30    1
    23    15    16   ar
    24    16    17   ar
    25    17    18   ar
    26    18    19   ar
    27    19    20   ar
    28    20    21   ar
    29     5     6   ar
    30     6     7   ar
    31     7     8    1
    32     7     1   ar
    33    21    13   ar
    34    29    23   ar
    35    21    16   ar
    36     3     9    1
    37     3    10    1
    38     8    11    1
    39     8    12    1
@<TRIPOS>MOLECULE
*****
 36 39 0 0 0
SMALL
GASTEIGER

@<TRIPOS>ATOM
      1 C         140.6609  145.0829  156.4620 C.ar    1  UNL1        0.1194
      2 C         141.4297  145.4737  157.6893 C.ar    1  UNL1        0.1452
      3 N         142.6031  146.4012  157.5755 N.pl3   1  UNL1       -0.3415
      4 N         141.0252  144.9370  159.0303 N.ar    1  UNL1       -0.1940
      5 C         139.8518  144.0096  159.1441 C.ar    1  UNL1        0.2554
      6 N         139.0829  143.6188  157.9168 N.ar    1  UNL1       -0.1940
      7 C         139.4875  144.1555  156.5758 C.ar    1  UNL1        0.1452
      8 N         138.7186  143.7647  155.3486 N.pl3   1  UNL1       -0.3415
      9 H         142.8686  146.7534  156.6953 H       1  UNL1        0.1438
     10 H         143.1078  146.6577  158.3810 H       1  UNL1        0.1438
     11 H         137.9485  143.1559  155.4233 H       1  UNL1        0.1438
     12 H         138.9841  144.1169  154.4684 H       1  UNL1        0.1438
     13 N         139.4473  143.4729  160.4851 N.ar    1  UNL1       -0.1967
     14 N         138.3892  142.4404  160.7389 N.ar    1  UNL1       -0.1666
     15 C         138.3178  142.2039  162.2184 C.ar    1  UNL1        0.0849
     16 C         139.3317  143.0903  162.8790 C.ar    1  UNL1        0.0334
     17 C         139.7095  143.2846  164.3176 C.ar    1  UNL1        0.0027
     18 C         140.7854  144.2631  164.6849 C.ar    1  UNL1        0.0001
     19 C         141.4834  145.0474  163.6136 C.ar    1  UNL1        0.0015
     20 C         141.1056  144.8532  162.1751 C.ar    1  UNL1        0.0193
     21 C         140.0298  143.8746  161.8078 C.ar    1  UNL1        0.0870
     22 C         137.3946  141.2488  162.9151 C.3     1  UNL1        0.0762
     23 C         137.9529  140.0601  163.6401 C.ar    1  UNL1        0.0135
     24 C         138.0727  140.0817  165.1351 C.ar    1  UNL1        0.0280
     25 C         138.6309  138.8932  165.8601 C.ar    1  UNL1        0.1400
     26 F         138.7508  138.9148  167.3552 F       1  UNL1       -0.2042
     27 C         139.0693  137.6829  165.0900 C.ar    1  UNL1        0.0319
     28 C         138.9495  137.6613  163.5949 C.ar    1  UNL1        0.0316
     29 C         138.3913  138.8498  162.8700 C.ar    1  UNL1        0.1366
     30 F         138.2715  138.8282  161.3749 F       1  UNL1       -0.2045
     31 C         140.3975  146.8449  154.5710 C.2     1  UNL1        0.4090
     32 O         139.3250  147.5335  155.3620 O.2     1  UNL1       -0.2258
     33 N         141.0654  145.6196  155.1210 N.am    1  UNL1       -0.2181
     34 C         142.1379  144.9310  154.3300 C.3     1  UNL1        0.1237
     35 C         140.5295  148.8152  152.8826 C.3     1  UNL1        0.2574
     36 O         140.8020  147.3816  153.2300 O.3     1  UNL1       -0.4302
@<TRIPOS>BOND
     1    35    36    1
     2    36    31    1
     3    31    32    2
     4    31    33   am
     5    33    34    1
     6    33     1    1
     7     1     2   ar
     8     2     3    1
     9     2     4   ar
    10     4     5   ar
    11     5    13    1
    12    13    14   ar
    13    14    15   ar
    14    15    22    1
    15    22    23    1
    16    23    24   ar
    17    24    25   ar
    18    25    26    1
    19    25    27   ar
    20    27    28   ar
    21    28    29   ar
    22    29    30    1
    23    15    16   ar
    24    16    17   ar
    25    17    18   ar
    26    18    19   ar
    27    19    20   ar
    28    20    21   ar
    29     5     6   ar
    30     6     7   ar
    31     7     8    1
    32     7     1   ar
    33    21    13   ar
    34    29    23   ar
    35    21    16   ar
    36     3     9    1
    37     3    10    1
    38     8    11    1
    39     8    12    1
@<TRIPOS>MOLECULE
*****
 36 39 0 0 0
SMALL
GASTEIGER

@<TRIPOS>ATOM
      1 C         141.3583  138.8552  159.2878 C.ar    1  UNL1        0.1194
      2 C         140.3668  139.9610  159.4979 C.ar    1  UNL1        0.1452
      3 N         139.6937  140.5988  158.3188 N.pl3   1  UNL1       -0.3415
      4 N         140.0484  140.4291  160.8870 N.ar    1  UNL1       -0.1940
      5 C         140.7214  139.7913  162.0660 C.ar    1  UNL1        0.2554
      6 N         141.7129  138.6854  161.8560 N.ar    1  UNL1       -0.1940
      7 C         142.0313  138.2174  160.4669 C.ar    1  UNL1        0.1452
      8 N         143.0228  137.1116  160.2570 N.pl3   1  UNL1       -0.3415
      9 H         139.9027  140.2917  157.4071 H       1  UNL1        0.1438
     10 H         139.0430  141.3246  158.4567 H       1  UNL1        0.1438
     11 H         143.4645  136.6930  161.0309 H       1  UNL1        0.1438
     12 H         143.2318  136.8044  159.3453 H       1  UNL1        0.1438
     13 N         140.4029  140.2593  163.4551 N.ar    1  UNL1       -0.1967
     14 N         140.7971  141.5771  164.0536 N.ar    1  UNL1       -0.1666
     15 C         140.2722  141.6239  165.4580 C.ar    1  UNL1        0.0849
     16 C         139.5537  140.3351  165.7275 C.ar    1  UNL1        0.0334
     17 C         138.8362  139.8205  166.9401 C.ar    1  UNL1        0.0027
     18 C         138.1996  138.4626  166.9148 C.ar    1  UNL1        0.0001
     19 C         138.2804  137.6192  165.6770 C.ar    1  UNL1        0.0015
     20 C         138.9978  138.1338  164.4644 C.ar    1  UNL1        0.0193
     21 C         139.6345  139.4917  164.4896 C.ar    1  UNL1        0.0870
     22 C         140.4369  142.7600  166.4234 C.3     1  UNL1        0.0762
     23 C         141.1871  142.5519  167.7056 C.ar    1  UNL1        0.0135
     24 C         140.4482  142.5230  169.0107 C.ar    1  UNL1        0.0280
     25 C         141.1982  142.3149  170.2928 C.ar    1  UNL1        0.1400
     26 F         140.4593  142.2859  171.5979 F       1  UNL1       -0.2042
     27 C         142.6873  142.1357  170.2700 C.ar    1  UNL1        0.0319
     28 C         143.4263  142.1647  168.9650 C.ar    1  UNL1        0.0316
     29 C         142.6762  142.3728  167.6828 C.ar    1  UNL1        0.1366
     30 F         143.4152  142.4018  166.3777 F       1  UNL1       -0.2045
     31 C         143.0013  138.7220  157.2798 C.2     1  UNL1        0.4090
     32 O         144.0076  139.5247  158.0499 O.2     1  UNL1       -0.2258
     33 N         141.6767  138.3872  157.8987 N.am    1  UNL1       -0.2181
     34 C         140.6704  137.5845  157.1287 C.3     1  UNL1        0.1237
     35 C         144.0628  136.9674  155.6845 C.3     1  UNL1        0.2574
     36 O         143.3199  138.2540  155.8907 O.3     1  UNL1       -0.4302
@<TRIPOS>BOND
     1    35    36    1
     2    36    31    1
     3    31    32    2
     4    31    33   am
     5    33    34    1
     6    33     1    1
     7     1     2   ar
     8     2     3    1
     9     2     4   ar
    10     4     5   ar
    11     5    13    1
    12    13    14   ar
    13    14    15   ar
    14    15    22    1
    15    22    23    1
    16    23    24   ar
    17    24    25   ar
    18    25    26    1
    19    25    27   ar
    20    27    28   ar
    21    28    29   ar
    22    29    30    1
    23    15    16   ar
    24    16    17   ar
    25    17    18   ar
    26    18    19   ar
    27    19    20   ar
    28    20    21   ar
    29     5     6   ar
    30     6     7   ar
    31     7     8    1
    32     7     1   ar
    33    21    13   ar
    34    29    23   ar
    35    21    16   ar
    36     3     9    1
    37     3    10    1
    38     8    11    1
    39     8    12    1
@<TRIPOS>MOLECULE
*****
 36 39 0 0 0
SMALL
GASTEIGER

@<TRIPOS>ATOM
      1 C         142.4189  139.4235  159.7280 C.ar    1  UNL1        0.1194
      2 C         143.2103  139.2535  160.9909 C.ar    1  UNL1        0.1452
      3 N         144.5477  138.5753  160.9522 N.pl3   1  UNL1       -0.3415
      4 N         142.6644  139.7616  162.2923 N.ar    1  UNL1       -0.1940
      5 C         141.3271  140.4397  162.3310 C.ar    1  UNL1        0.2554
      6 N         140.5356  140.6098  161.0681 N.ar    1  UNL1       -0.1940
      7 C         141.0815  140.1017  159.7667 C.ar    1  UNL1        0.1452
      8 N         140.2901  140.2718  158.5039 N.pl3   1  UNL1       -0.3415
      9 H         144.9060  138.2418  160.0980 H       1  UNL1        0.1438
     10 H         145.0672  138.4637  161.7810 H       1  UNL1        0.1438
     11 H         139.4123  140.7169  158.5294 H       1  UNL1        0.1438
     12 H         140.6483  139.9383  157.6497 H       1  UNL1        0.1438
     13 N         140.7811  140.9478  163.6325 N.ar    1  UNL1       -0.1967
     14 N         140.6589  140.1619  164.9042 N.ar    1  UNL1       -0.1666
     15 C         140.0638  141.0594  165.9484 C.ar    1  UNL1        0.0849
     16 C         139.8182  142.4001  165.3219 C.ar    1  UNL1        0.0334
     17 C         139.2482  143.6747  165.8699 C.ar    1  UNL1        0.0027
     18 C         139.1215  144.8803  164.9866 C.ar    1  UNL1        0.0001
     19 C         139.5649  144.8114  163.5553 C.ar    1  UNL1        0.0015
     20 C         140.1349  143.5367  163.0073 C.ar    1  UNL1        0.0193
     21 C         140.2616  142.3311  163.8906 C.ar    1  UNL1        0.0870
     22 C         139.7664  140.6825  167.3695 C.3     1  UNL1        0.0762
     23 C         140.5878  141.2572  168.4854 C.ar    1  UNL1        0.0135
     24 C         142.0121  141.6579  168.2389 C.ar    1  UNL1        0.0280
     25 C         142.8335  142.2325  169.3547 C.ar    1  UNL1        0.1400
     26 F         144.2578  142.6332  169.1081 F       1  UNL1       -0.2042
     27 C         142.2306  142.4064  170.7171 C.ar    1  UNL1        0.0319
     28 C         140.8063  142.0057  170.9637 C.ar    1  UNL1        0.0316
     29 C         139.9849  141.4311  169.8478 C.ar    1  UNL1        0.1366
     30 F         138.5606  141.0303  170.0944 F       1  UNL1       -0.2045
     31 C         143.8876  139.7745  157.6140 C.2     1  UNL1        0.4090
     32 O         144.2644  141.1417  158.1027 O.2     1  UNL1       -0.2258
     33 N         142.9649  138.9154  158.4266 N.am    1  UNL1       -0.2181
     34 C         142.5881  137.5483  157.9378 C.3     1  UNL1        0.1237
     35 C         145.4137  140.0949  155.5358 C.3     1  UNL1        0.2574
     36 O         144.4336  139.2665  156.3125 O.3     1  UNL1       -0.4302
@<TRIPOS>BOND
     1    35    36    1
     2    36    31    1
     3    31    32    2
     4    31    33   am
     5    33    34    1
     6    33     1    1
     7     1     2   ar
     8     2     3    1
     9     2     4   ar
    10     4     5   ar
    11     5    13    1
    12    13    14   ar
    13    14    15   ar
    14    15    22    1
    15    22    23    1
    16    23    24   ar
    17    24    25   ar
    18    25    26    1
    19    25    27   ar
    20    27    28   ar
    21    28    29   ar
    22    29    30    1
    23    15    16   ar
    24    16    17   ar
    25    17    18   ar
    26    18    19   ar
    27    19    20   ar
    28    20    21   ar
    29     5     6   ar
    30     6     7   ar
    31     7     8    1
    32     7     1   ar
    33    21    13   ar
    34    29    23   ar
    35    21    16   ar
    36     3     9    1
    37     3    10    1
    38     8    11    1
    39     8    12    1
@<TRIPOS>MOLECULE
*****
 36 39 0 0 0
SMALL
GASTEIGER

@<TRIPOS>ATOM
      1 C         140.5461  144.6913  157.7947 C.ar    1  UNL1        0.1194
      2 C         139.6231  143.7369  158.4926 C.ar    1  UNL1        0.1452
      3 N         138.5196  143.0669  157.7288 N.pl3   1  UNL1       -0.3415
      4 N         139.8036  143.4524  159.9543 N.ar    1  UNL1       -0.1940
      5 C         140.9070  144.1224  160.7181 C.ar    1  UNL1        0.2554
      6 N         141.8301  145.0769  160.0202 N.ar    1  UNL1       -0.1940
      7 C         141.6496  145.3613  158.5585 C.ar    1  UNL1        0.1452
      8 N         142.5727  146.3158  157.8608 N.pl3   1  UNL1       -0.3415
      9 H         138.4012  143.2536  156.7695 H       1  UNL1        0.1438
     10 H         137.9138  142.4404  158.1868 H       1  UNL1        0.1438
     11 H         143.2969  146.7555  158.3621 H       1  UNL1        0.1438
     12 H         142.4543  146.5025  156.9014 H       1  UNL1        0.1438
     13 N         141.0874  143.8379  162.1798 N.ar    1  UNL1       -0.1967
     14 N         140.0346  143.9692  163.2402 N.ar    1  UNL1       -0.1666
     15 C         140.6489  143.5847  164.5534 C.ar    1  UNL1        0.0849
     16 C         142.0815  143.2158  164.3048 C.ar    1  UNL1        0.0334
     17 C         143.1741  142.7576  165.2246 C.ar    1  UNL1        0.0027
     18 C         144.5377  142.4559  164.6775 C.ar    1  UNL1        0.0001
     19 C         144.8087  142.6124  163.2105 C.ar    1  UNL1        0.0015
     20 C         143.7161  143.0706  162.2907 C.ar    1  UNL1        0.0193
     21 C         142.3525  143.3723  162.8378 C.ar    1  UNL1        0.0870
     22 C         139.9530  143.5714  165.8821 C.3     1  UNL1        0.0762
     23 C         140.1207  142.4007  166.8050 C.ar    1  UNL1        0.0135
     24 C         140.8096  142.5793  168.1254 C.ar    1  UNL1        0.0280
     25 C         140.9773  141.4088  169.0483 C.ar    1  UNL1        0.1400
     26 F         141.6662  141.5875  170.3687 F       1  UNL1       -0.2042
     27 C         140.4562  140.0596  168.6507 C.ar    1  UNL1        0.0319
     28 C         139.7674  139.8810  167.3302 C.ar    1  UNL1        0.0316
     29 C         139.5996  141.0515  166.4074 C.ar    1  UNL1        0.1366
     30 F         138.9107  140.8729  165.0869 F       1  UNL1       -0.2045
     31 C         139.7247  146.2582  155.8922 C.2     1  UNL1        0.4090
     32 O         139.2642  147.2562  156.9129 O.2     1  UNL1       -0.2258
     33 N         140.3657  144.9757  156.3330 N.am    1  UNL1       -0.2181
     34 C         140.8262  143.9777  155.3123 C.3     1  UNL1        0.1237
     35 C         140.0026  147.8516  153.8589 C.3     1  UNL1        0.2574
     36 O         139.5442  146.5427  154.4305 O.3     1  UNL1       -0.4302
@<TRIPOS>BOND
     1    35    36    1
     2    36    31    1
     3    31    32    2
     4    31    33   am
     5    33    34    1
     6    33     1    1
     7     1     2   ar
     8     2     3    1
     9     2     4   ar
    10     4     5   ar
    11     5    13    1
    12    13    14   ar
    13    14    15   ar
    14    15    22    1
    15    22    23    1
    16    23    24   ar
    17    24    25   ar
    18    25    26    1
    19    25    27   ar
    20    27    28   ar
    21    28    29   ar
    22    29    30    1
    23    15    16   ar
    24    16    17   ar
    25    17    18   ar
    26    18    19   ar
    27    19    20   ar
    28    20    21   ar
    29     5     6   ar
    30     6     7   ar
    31     7     8    1
    32     7     1   ar
    33    21    13   ar
    34    29    23   ar
    35    21    16   ar
    36     3     9    1
    37     3    10    1
    38     8    11    1
    39     8    12    1
