@<TRIPOS>MOLECULE
*****
 34 37 0 0 0
SMALL
GASTEIGER

@<TRIPOS>ATOM
      1 C         140.6288  141.7608  166.8900 C.ar    1  UNL1        0.0484
      2 C         140.5150  142.1229  168.3411 C.ar    1  UNL1        0.1356
      3 O         141.2686  143.3021  168.8812 O.3     1  UNL1       -0.5056
      4 C         139.6477  141.3059  169.2523 C.ar    1  UNL1        0.0732
      5 C         138.8941  140.1267  168.7123 C.ar    1  UNL1        0.1426
      6 O         138.0267  139.3097  169.6234 O.3     1  UNL1       -0.5052
      7 C         139.0078  139.7646  167.2611 C.ar    1  UNL1        0.1070
      8 C         138.2542  138.5854  166.7210 C.ar    1  UNL1        0.2046
      9 O         137.3869  137.7684  167.6322 O.2     1  UNL1       -0.2863
     10 C         138.3680  138.2233  165.2699 C.ar    1  UNL1        0.0797
     11 C         139.2353  139.0403  164.3588 C.ar    1  UNL1        0.1485
     12 O         139.9889  140.2195  164.8988 O.2     1  UNL1       -0.4534
     13 C         139.8751  140.5816  166.3499 C.ar    1  UNL1        0.1502
     14 H         141.8104  143.8125  168.3121 H       1  UNL1        0.2922
     15 H         137.9557  139.5359  170.5299 H       1  UNL1        0.2922
     16 C         144.0982  145.0289  163.2454 C.3     1  UNL1        0.0897
     17 N         143.2308  144.2119  164.1566 N.3     1  UNL1       -0.2694
     18 C         143.8477  143.1782  165.0516 C.3     1  UNL1        0.0726
     19 C         142.9804  142.3612  165.9627 C.3     1  UNL1        0.0244
     20 C         141.4961  142.5778  165.9788 C.3     1  UNL1        0.0580
     21 C         140.8793  143.6115  165.0838 C.3     1  UNL1        0.1306
     22 O         139.3951  143.8281  165.0999 O.3     1  UNL1       -0.3827
     23 C         141.7467  144.4285  164.1727 C.3     1  UNL1        0.1020
     24 H         139.1633  144.5263  164.4676 H       1  UNL1        0.2104
     25 C         139.3490  138.6781  162.9075 C.2     1  UNL1        0.0377
     26 C         140.1291  139.5559  161.9744 C.2     1  UNL1        0.0048
     27 C         140.2428  139.1938  160.5231 C.ar    1  UNL1        0.0213
     28 C         141.4726  138.4996  160.0175 C.ar    1  UNL1        0.0585
     29 CL        142.5887  138.1675  160.9631 Cl      1  UNL1       -0.0822
     30 C         141.5863  138.1374  158.5664 C.ar    1  UNL1        0.0114
     31 C         140.4702  138.4695  157.6208 C.ar    1  UNL1        0.0017
     32 C         139.2404  139.1637  158.1264 C.ar    1  UNL1        0.0114
     33 C         139.1267  139.5258  159.5776 C.ar    1  UNL1        0.0585
     34 CL        137.8969  140.2200  160.0833 Cl      1  UNL1       -0.0822
@<TRIPOS>BOND
     1    16    17    1
     2    17    18    1
     3    18    19    1
     4    19    20    1
     5    20     1    1
     6     1     2   ar
     7     2     3    1
     8     2     4   ar
     9     4     5   ar
    10     5     6    1
    11     5     7   ar
    12     7     8   ar
    13     8     9    2
    14     8    10   ar
    15    10    11   ar
    16    11    25    1
    17    25    26    2
    18    26    27    1
    19    27    28   ar
    20    28    29    1
    21    28    30   ar
    22    30    31   ar
    23    31    32   ar
    24    32    33   ar
    25    33    34    1
    26    11    12   ar
    27    12    13   ar
    28    20    21    1
    29    21    22    1
    30    21    23    1
    31    23    17    1
    32    13     1   ar
    33    13     7   ar
    34    33    27   ar
    35     3    14    1
    36     6    15    1
    37    22    24    1
@<TRIPOS>MOLECULE
*****
 34 37 0 0 0
SMALL
GASTEIGER

@<TRIPOS>ATOM
      1 C         141.4919  142.1612  165.7346 C.ar    1  UNL1        0.0484
      2 C         141.1238  142.2474  167.1862 C.ar    1  UNL1        0.1356
      3 O         140.2596  143.3717  167.6753 O.3     1  UNL1       -0.5056
      4 C         141.6199  141.2094  168.1486 C.ar    1  UNL1        0.0732
      5 C         142.4841  140.0851  167.6596 C.ar    1  UNL1        0.1426
      6 O         142.9802  139.0471  168.6220 O.3     1  UNL1       -0.5052
      7 C         142.8522  139.9989  166.2079 C.ar    1  UNL1        0.1070
      8 C         143.7164  138.8747  165.7189 C.ar    1  UNL1        0.2046
      9 O         144.2125  137.8367  166.6813 O.2     1  UNL1       -0.2863
     10 C         144.0845  138.7885  164.2673 C.ar    1  UNL1        0.0797
     11 C         143.5884  139.8266  163.3048 C.ar    1  UNL1        0.1485
     12 O         142.7242  140.9508  163.7939 O.2     1  UNL1       -0.4534
     13 C         142.3561  141.0370  165.2455 C.ar    1  UNL1        0.1502
     14 H         139.9496  144.0201  167.0741 H       1  UNL1        0.2922
     15 H         142.7502  139.1009  169.5288 H       1  UNL1        0.2922
     16 C         139.5075  146.3134  161.8848 C.3     1  UNL1        0.0897
     17 N         140.0036  145.2754  162.8472 N.3     1  UNL1       -0.2694
     18 C         141.4244  145.3151  163.3266 C.3     1  UNL1        0.0726
     19 C         141.9205  144.2771  164.2890 C.3     1  UNL1        0.0244
     20 C         140.9958  143.1993  164.7722 C.3     1  UNL1        0.0580
     21 C         139.5750  143.1596  164.2928 C.3     1  UNL1        0.1306
     22 O         138.6503  142.0818  164.7760 O.3     1  UNL1       -0.3827
     23 C         139.0789  144.1977  163.3304 C.3     1  UNL1        0.1020
     24 H         137.7762  142.2010  164.3726 H       1  UNL1        0.2104
     25 C         143.9565  139.7404  161.8532 C.2     1  UNL1        0.0377
     26 C         143.0694  140.3629  160.8162 C.2     1  UNL1        0.0048
     27 C         143.4375  140.2767  159.3646 C.ar    1  UNL1        0.0213
     28 C         142.9836  139.1060  158.5440 C.ar    1  UNL1        0.0585
     29 CL        142.1615  138.0216  159.1750 Cl      1  UNL1       -0.0822
     30 C         143.3517  139.0199  157.0925 C.ar    1  UNL1        0.0114
     31 C         144.1738  140.1044  156.4616 C.ar    1  UNL1        0.0017
     32 C         144.6277  141.2750  157.2822 C.ar    1  UNL1        0.0114
     33 C         144.2596  141.3612  158.7337 C.ar    1  UNL1        0.0585
     34 CL        144.7135  142.5319  159.5544 Cl      1  UNL1       -0.0822
@<TRIPOS>BOND
     1    16    17    1
     2    17    18    1
     3    18    19    1
     4    19    20    1
     5    20     1    1
     6     1     2   ar
     7     2     3    1
     8     2     4   ar
     9     4     5   ar
    10     5     6    1
    11     5     7   ar
    12     7     8   ar
    13     8     9    2
    14     8    10   ar
    15    10    11   ar
    16    11    25    1
    17    25    26    2
    18    26    27    1
    19    27    28   ar
    20    28    29    1
    21    28    30   ar
    22    30    31   ar
    23    31    32   ar
    24    32    33   ar
    25    33    34    1
    26    11    12   ar
    27    12    13   ar
    28    20    21    1
    29    21    22    1
    30    21    23    1
    31    23    17    1
    32    13     1   ar
    33    13     7   ar
    34    33    27   ar
    35     3    14    1
    36     6    15    1
    37    22    24    1
@<TRIPOS>MOLECULE
*****
 34 37 0 0 0
SMALL
GASTEIGER

@<TRIPOS>ATOM
      1 C         143.4977  140.6319  158.7864 C.ar    1  UNL1        0.0484
      2 C         143.9007  142.0382  159.1179 C.ar    1  UNL1        0.1356
      3 O         143.3957  142.6872  160.3725 O.3     1  UNL1       -0.5056
      4 C         144.8086  142.7956  158.1948 C.ar    1  UNL1        0.0732
      5 C         145.3136  142.1467  156.9403 C.ar    1  UNL1        0.1426
      6 O         146.2216  142.9040  156.0173 O.3     1  UNL1       -0.5052
      7 C         144.9107  140.7403  156.6088 C.ar    1  UNL1        0.1070
      8 C         145.4156  140.0914  155.3543 C.ar    1  UNL1        0.2046
      9 O         146.3236  140.8488  154.4312 O.2     1  UNL1       -0.2863
     10 C         145.0127  138.6851  155.0228 C.ar    1  UNL1        0.0797
     11 C         144.1047  137.9277  155.9459 C.ar    1  UNL1        0.1485
     12 O         143.5997  138.5766  157.2004 O.2     1  UNL1       -0.4534
     13 C         144.0027  139.9829  157.5319 C.ar    1  UNL1        0.1502
     14 H         142.8286  142.2141  160.9491 H       1  UNL1        0.2922
     15 H         146.4733  143.7825  156.2243 H       1  UNL1        0.2922
     16 C         139.8660  137.6024  162.4786 C.3     1  UNL1        0.0897
     17 N         140.7739  138.3598  161.5556 N.3     1  UNL1       -0.2694
     18 C         140.1989  139.3344  160.5708 C.3     1  UNL1        0.0726
     19 C         141.1068  140.0918  159.6478 C.3     1  UNL1        0.0244
     20 C         142.5898  139.8746  159.7095 C.3     1  UNL1        0.0580
     21 C         143.1647  138.9000  160.6942 C.3     1  UNL1        0.1306
     22 O         144.6477  138.6828  160.7559 O.3     1  UNL1       -0.3827
     23 C         142.2568  138.1427  161.6172 C.3     1  UNL1        0.1020
     24 H         144.8501  138.0264  161.4407 H       1  UNL1        0.2104
     25 C         143.7018  136.5214  155.6144 C.2     1  UNL1        0.0377
     26 C         143.0975  135.6454  156.6714 C.2     1  UNL1        0.0048
     27 C         142.6945  134.2390  156.3399 C.ar    1  UNL1        0.0213
     28 C         143.4046  133.0842  156.9819 C.ar    1  UNL1        0.0585
     29 CL        144.5177  133.3357  157.9555 Cl      1  UNL1       -0.0822
     30 C         143.0016  131.6780  156.6504 C.ar    1  UNL1        0.0114
     31 C         141.8886  131.4264  155.6768 C.ar    1  UNL1        0.0017
     32 C         141.1785  132.5812  155.0348 C.ar    1  UNL1        0.0114
     33 C         141.5815  133.9875  155.3663 C.ar    1  UNL1        0.0585
     34 CL        140.8714  135.1423  154.7243 Cl      1  UNL1       -0.0822
@<TRIPOS>BOND
     1    16    17    1
     2    17    18    1
     3    18    19    1
     4    19    20    1
     5    20     1    1
     6     1     2   ar
     7     2     3    1
     8     2     4   ar
     9     4     5   ar
    10     5     6    1
    11     5     7   ar
    12     7     8   ar
    13     8     9    2
    14     8    10   ar
    15    10    11   ar
    16    11    25    1
    17    25    26    2
    18    26    27    1
    19    27    28   ar
    20    28    29    1
    21    28    30   ar
    22    30    31   ar
    23    31    32   ar
    24    32    33   ar
    25    33    34    1
    26    11    12   ar
    27    12    13   ar
    28    20    21    1
    29    21    22    1
    30    21    23    1
    31    23    17    1
    32    13     1   ar
    33    13     7   ar
    34    33    27   ar
    35     3    14    1
    36     6    15    1
    37    22    24    1
@<TRIPOS>MOLECULE
*****
 34 37 0 0 0
SMALL
GASTEIGER

@<TRIPOS>ATOM
      1 C         143.7421  140.5185  158.8401 C.ar    1  UNL1        0.0484
      2 C         144.0803  141.9515  159.1264 C.ar    1  UNL1        0.1356
      3 O         143.7269  142.5548  160.4535 O.3     1  UNL1       -0.5056
      4 C         144.7718  142.7813  158.0856 C.ar    1  UNL1        0.0732
      5 C         145.1251  142.1781  156.7585 C.ar    1  UNL1        0.1426
      6 O         145.8166  143.0079  155.7177 O.3     1  UNL1       -0.5052
      7 C         144.7870  140.7450  156.4722 C.ar    1  UNL1        0.1070
      8 C         145.1404  140.1418  155.1451 C.ar    1  UNL1        0.2046
      9 O         145.8319  140.9716  154.1043 O.2     1  UNL1       -0.2863
     10 C         144.8022  138.7087  154.8588 C.ar    1  UNL1        0.0797
     11 C         144.1107  137.8789  155.8996 C.ar    1  UNL1        0.1485
     12 O         143.7574  138.4821  157.2266 O.2     1  UNL1       -0.4534
     13 C         144.0955  139.9152  157.5129 C.ar    1  UNL1        0.1502
     14 H         143.2950  142.0365  161.1037 H       1  UNL1        0.2922
     15 H         146.0279  143.9031  155.8966 H       1  UNL1        0.2922
     16 C         140.9762  137.1992  163.0032 C.3     1  UNL1        0.0897
     17 N         141.6677  138.0290  161.9624 N.3     1  UNL1       -0.2694
     18 C         143.1662  138.0638  161.9049 C.3     1  UNL1        0.0726
     19 C         143.8577  138.8936  160.8641 C.3     1  UNL1        0.0244
     20 C         143.0506  139.6887  159.8809 C.3     1  UNL1        0.0580
     21 C         141.5522  139.6538  159.9385 C.3     1  UNL1        0.1306
     22 O         140.7451  140.4489  158.9552 O.3     1  UNL1       -0.3827
     23 C         140.8607  138.8240  160.9792 C.3     1  UNL1        0.1020
     24 H         139.8003  140.3159  159.1299 H       1  UNL1        0.2104
     25 C         143.7726  136.4458  155.6132 C.2     1  UNL1        0.0377
     26 C         143.0155  135.6373  156.6246 C.2     1  UNL1        0.0048
     27 C         142.6774  134.2042  156.3383 C.ar    1  UNL1        0.0213
     28 C         141.6105  133.8707  155.3381 C.ar    1  UNL1        0.0585
     29 CL        140.8817  134.9703  154.6242 Cl      1  UNL1       -0.0822
     30 C         141.2724  132.4377  155.0518 C.ar    1  UNL1        0.0114
     31 C         142.0012  131.3381  155.7657 C.ar    1  UNL1        0.0017
     32 C         143.0681  131.6715  156.7659 C.ar    1  UNL1        0.0114
     33 C         143.4062  133.1046  157.0522 C.ar    1  UNL1        0.0585
     34 CL        144.4732  133.4381  158.0525 Cl      1  UNL1       -0.0822
@<TRIPOS>BOND
     1    16    17    1
     2    17    18    1
     3    18    19    1
     4    19    20    1
     5    20     1    1
     6     1     2   ar
     7     2     3    1
     8     2     4   ar
     9     4     5   ar
    10     5     6    1
    11     5     7   ar
    12     7     8   ar
    13     8     9    2
    14     8    10   ar
    15    10    11   ar
    16    11    25    1
    17    25    26    2
    18    26    27    1
    19    27    28   ar
    20    28    29    1
    21    28    30   ar
    22    30    31   ar
    23    31    32   ar
    24    32    33   ar
    25    33    34    1
    26    11    12   ar
    27    12    13   ar
    28    20    21    1
    29    21    22    1
    30    21    23    1
    31    23    17    1
    32    13     1   ar
    33    13     7   ar
    34    33    27   ar
    35     3    14    1
    36     6    15    1
    37    22    24    1
@<TRIPOS>MOLECULE
*****
 34 37 0 0 0
SMALL
GASTEIGER

@<TRIPOS>ATOM
      1 C         141.3036  140.9081  165.4582 C.ar    1  UNL1        0.0484
      2 C         141.1901  140.6411  166.9299 C.ar    1  UNL1        0.1356
      3 O         140.1383  139.7028  167.4430 O.3     1  UNL1       -0.5056
      4 C         142.1284  141.3125  167.8885 C.ar    1  UNL1        0.0732
      5 C         143.1802  142.2508  167.3754 C.ar    1  UNL1        0.1426
      6 O         144.1185  142.9222  168.3340 O.3     1  UNL1       -0.5052
      7 C         143.2937  142.5178  165.9037 C.ar    1  UNL1        0.1070
      8 C         144.3455  143.4561  165.3906 C.ar    1  UNL1        0.2046
      9 O         145.2838  144.1275  166.3492 O.2     1  UNL1       -0.2863
     10 C         144.4590  143.7231  163.9190 C.ar    1  UNL1        0.0797
     11 C         143.5208  143.0517  162.9604 C.ar    1  UNL1        0.1485
     12 O         142.4690  142.1134  163.4734 O.2     1  UNL1       -0.4534
     13 C         142.3555  141.8464  164.9451 C.ar    1  UNL1        0.1502
     14 H         139.5522  139.2834  166.8442 H       1  UNL1        0.2922
     15 H         144.0475  142.7554  169.2533 H       1  UNL1        0.2922
     16 C         137.5506  138.2226  161.6238 C.3     1  UNL1        0.0897
     17 N         138.4888  138.8939  162.5824 N.3     1  UNL1       -0.2694
     18 C         138.0908  140.1793  163.2453 C.3     1  UNL1        0.0726
     19 C         139.0291  140.8507  164.2039 C.3     1  UNL1        0.0244
     20 C         140.3654  140.2367  164.4996 C.3     1  UNL1        0.0580
     21 C         140.7633  138.9514  163.8367 C.3     1  UNL1        0.1306
     22 O         142.0996  138.3373  164.1324 O.3     1  UNL1       -0.3827
     23 C         139.8251  138.2800  162.8781 C.3     1  UNL1        0.1020
     24 H         142.1975  137.5162  163.6254 H       1  UNL1        0.2104
     25 C         143.6343  143.3187  161.4886 C.2     1  UNL1        0.0377
     26 C         142.5568  142.8504  160.5561 C.2     1  UNL1        0.0048
     27 C         142.6704  143.1174  159.0844 C.ar    1  UNL1        0.0213
     28 C         143.4015  142.1505  158.2010 C.ar    1  UNL1        0.0585
     29 CL        144.0191  140.9165  158.7892 Cl      1  UNL1       -0.0822
     30 C         143.5150  142.4175  156.7293 C.ar    1  UNL1        0.0114
     31 C         142.8974  143.6514  156.1411 C.ar    1  UNL1        0.0017
     32 C         142.1663  144.6183  157.0245 C.ar    1  UNL1        0.0114
     33 C         142.0527  144.3513  158.4962 C.ar    1  UNL1        0.0585
     34 CL        141.3216  145.3182  159.3797 Cl      1  UNL1       -0.0822
@<TRIPOS>BOND
     1    16    17    1
     2    17    18    1
     3    18    19    1
     4    19    20    1
     5    20     1    1
     6     1     2   ar
     7     2     3    1
     8     2     4   ar
     9     4     5   ar
    10     5     6    1
    11     5     7   ar
    12     7     8   ar
    13     8     9    2
    14     8    10   ar
    15    10    11   ar
    16    11    25    1
    17    25    26    2
    18    26    27    1
    19    27    28   ar
    20    28    29    1
    21    28    30   ar
    22    30    31   ar
    23    31    32   ar
    24    32    33   ar
    25    33    34    1
    26    11    12   ar
    27    12    13   ar
    28    20    21    1
    29    21    22    1
    30    21    23    1
    31    23    17    1
    32    13     1   ar
    33    13     7   ar
    34    33    27   ar
    35     3    14    1
    36     6    15    1
    37    22    24    1
@<TRIPOS>MOLECULE
*****
 34 37 0 0 0
SMALL
GASTEIGER

@<TRIPOS>ATOM
      1 C         141.2901  140.9088  165.4460 C.ar    1  UNL1        0.0484
      2 C         141.1760  140.6377  166.9169 C.ar    1  UNL1        0.1356
      3 O         140.1235  139.6985  167.4270 O.3     1  UNL1       -0.5056
      4 C         142.1144  141.3057  167.8777 C.ar    1  UNL1        0.0732
      5 C         143.1669  142.2449  167.3676 C.ar    1  UNL1        0.1426
      6 O         144.1053  142.9129  168.3284 O.3     1  UNL1       -0.5052
      7 C         143.2810  142.5161  165.8967 C.ar    1  UNL1        0.1070
      8 C         144.3335  143.4552  165.3867 C.ar    1  UNL1        0.2046
      9 O         145.2719  144.1233  166.3475 O.2     1  UNL1       -0.2863
     10 C         144.4476  143.7263  163.9158 C.ar    1  UNL1        0.0797
     11 C         143.5092  143.0583  162.9550 C.ar    1  UNL1        0.1485
     12 O         142.4567  142.1191  163.4651 O.2     1  UNL1       -0.4534
     13 C         142.3426  141.8480  164.9359 C.ar    1  UNL1        0.1502
     14 H         139.5373  139.2811  166.8268 H       1  UNL1        0.2922
     15 H         144.0340  142.7436  169.2472 H       1  UNL1        0.2922
     16 C         137.5366  138.2366  161.6028 C.3     1  UNL1        0.0897
     17 N         138.4750  138.9047  162.5636 N.3     1  UNL1       -0.2694
     18 C         138.1396  140.2556  163.1228 C.3     1  UNL1        0.0726
     19 C         139.0779  140.9236  164.0836 C.3     1  UNL1        0.0244
     20 C         140.3517  140.2407  164.4852 C.3     1  UNL1        0.0580
     21 C         140.6871  138.8899  163.9261 C.3     1  UNL1        0.1306
     22 O         141.9608  138.2070  164.3277 O.3     1  UNL1       -0.3827
     23 C         139.7487  138.2218  162.9653 C.3     1  UNL1        0.1020
     24 H         142.0231  137.3492  163.8792 H       1  UNL1        0.2104
     25 C         143.6234  143.3295  161.4841 C.2     1  UNL1        0.0377
     26 C         142.5480  142.8607  160.5494 C.2     1  UNL1        0.0048
     27 C         142.6621  143.1319  159.0785 C.ar    1  UNL1        0.0213
     28 C         142.0400  144.3646  158.4926 C.ar    1  UNL1        0.0585
     29 CL        141.3037  145.3262  159.3776 Cl      1  UNL1       -0.0822
     30 C         142.1542  144.6357  157.0218 C.ar    1  UNL1        0.0114
     31 C         142.8905  143.6741  156.1368 C.ar    1  UNL1        0.0017
     32 C         143.5126  142.4413  156.7227 C.ar    1  UNL1        0.0114
     33 C         143.3984  142.1702  158.1935 C.ar    1  UNL1        0.0585
     34 CL        144.0205  140.9374  158.7794 Cl      1  UNL1       -0.0822
@<TRIPOS>BOND
     1    16    17    1
     2    17    18    1
     3    18    19    1
     4    19    20    1
     5    20     1    1
     6     1     2   ar
     7     2     3    1
     8     2     4   ar
     9     4     5   ar
    10     5     6    1
    11     5     7   ar
    12     7     8   ar
    13     8     9    2
    14     8    10   ar
    15    10    11   ar
    16    11    25    1
    17    25    26    2
    18    26    27    1
    19    27    28   ar
    20    28    29    1
    21    28    30   ar
    22    30    31   ar
    23    31    32   ar
    24    32    33   ar
    25    33    34    1
    26    11    12   ar
    27    12    13   ar
    28    20    21    1
    29    21    22    1
    30    21    23    1
    31    23    17    1
    32    13     1   ar
    33    13     7   ar
    34    33    27   ar
    35     3    14    1
    36     6    15    1
    37    22    24    1
@<TRIPOS>MOLECULE
*****
 34 37 0 0 0
SMALL
GASTEIGER

@<TRIPOS>ATOM
      1 C         142.6351  139.5144  158.8982 C.ar    1  UNL1        0.0484
      2 C         142.7552  140.9989  158.7199 C.ar    1  UNL1        0.1356
      3 O         142.4819  141.9175  159.8740 O.3     1  UNL1       -0.5056
      4 C         143.1486  141.5649  157.3877 C.ar    1  UNL1        0.0732
      5 C         143.4219  140.6465  156.2337 C.ar    1  UNL1        0.1426
      6 O         143.8153  141.2125  154.9015 O.3     1  UNL1       -0.5052
      7 C         143.3018  139.1619  156.4120 C.ar    1  UNL1        0.1070
      8 C         143.5750  138.2434  155.2580 C.ar    1  UNL1        0.2046
      9 O         143.9684  138.8095  153.9258 O.2     1  UNL1       -0.2863
     10 C         143.4549  136.7589  155.4363 C.ar    1  UNL1        0.0797
     11 C         143.0615  136.1929  156.7685 C.ar    1  UNL1        0.1485
     12 O         142.7882  137.1114  157.9225 O.2     1  UNL1       -0.4534
     13 C         142.9083  138.5959  157.7442 C.ar    1  UNL1        0.1502
     14 H         142.2362  141.5639  160.7062 H       1  UNL1        0.2922
     15 H         143.8903  142.1398  154.7902 H       1  UNL1        0.2922
     16 C         141.0614  137.2503  164.2271 C.3     1  UNL1        0.0897
     17 N         141.4548  137.8164  162.8949 N.3     1  UNL1       -0.2694
     18 C         140.3987  138.1910  161.8977 C.3     1  UNL1        0.0726
     19 C         140.7921  138.7570  160.5655 C.3     1  UNL1        0.0244
     20 C         142.2417  138.9484  160.2304 C.3     1  UNL1        0.0580
     21 C         143.2977  138.5738  161.2276 C.3     1  UNL1        0.1306
     22 O         144.7473  138.7653  160.8925 O.3     1  UNL1       -0.3827
     23 C         142.9043  138.0078  162.5598 C.3     1  UNL1        0.1020
     24 H         145.2930  138.4754  161.6403 H       1  UNL1        0.2104
     25 C         142.9413  134.7084  156.9467 C.2     1  UNL1        0.0377
     26 C         143.8776  133.7877  156.2216 C.2     1  UNL1        0.0048
     27 C         143.7575  132.3032  156.3999 C.ar    1  UNL1        0.0213
     28 C         142.7405  131.5329  155.6109 C.ar    1  UNL1        0.0585
     29 CL        141.8436  132.2472  154.6437 Cl      1  UNL1       -0.0822
     30 C         142.6204  130.0484  155.7892 C.ar    1  UNL1        0.0114
     31 C         143.5173  129.3342  156.7563 C.ar    1  UNL1        0.0017
     32 C         144.5343  130.1044  157.5453 C.ar    1  UNL1        0.0114
     33 C         144.6544  131.5889  157.3670 C.ar    1  UNL1        0.0585
     34 CL        145.6714  132.3592  158.1560 Cl      1  UNL1       -0.0822
@<TRIPOS>BOND
     1    16    17    1
     2    17    18    1
     3    18    19    1
     4    19    20    1
     5    20     1    1
     6     1     2   ar
     7     2     3    1
     8     2     4   ar
     9     4     5   ar
    10     5     6    1
    11     5     7   ar
    12     7     8   ar
    13     8     9    2
    14     8    10   ar
    15    10    11   ar
    16    11    25    1
    17    25    26    2
    18    26    27    1
    19    27    28   ar
    20    28    29    1
    21    28    30   ar
    22    30    31   ar
    23    31    32   ar
    24    32    33   ar
    25    33    34    1
    26    11    12   ar
    27    12    13   ar
    28    20    21    1
    29    21    22    1
    30    21    23    1
    31    23    17    1
    32    13     1   ar
    33    13     7   ar
    34    33    27   ar
    35     3    14    1
    36     6    15    1
    37    22    24    1
@<TRIPOS>MOLECULE
*****
 34 37 0 0 0
SMALL
GASTEIGER

@<TRIPOS>ATOM
      1 C         141.2019  143.5917  158.8828 C.ar    1  UNL1        0.0484
      2 C         141.5747  144.2960  157.6120 C.ar    1  UNL1        0.1356
      3 O         142.6157  145.3759  157.6306 O.3     1  UNL1       -0.5056
      4 C         140.9066  143.9204  156.3226 C.ar    1  UNL1        0.0732
      5 C         139.8657  142.8406  156.3040 C.ar    1  UNL1        0.1426
      6 O         139.1976  142.4650  155.0146 O.3     1  UNL1       -0.5052
      7 C         139.4929  142.1362  157.5748 C.ar    1  UNL1        0.1070
      8 C         138.4520  141.0563  157.5562 C.ar    1  UNL1        0.2046
      9 O         137.7839  140.6807  156.2668 O.2     1  UNL1       -0.2863
     10 C         138.0792  140.3520  158.8270 C.ar    1  UNL1        0.0797
     11 C         138.7473  140.7276  160.1164 C.ar    1  UNL1        0.1485
     12 O         139.7882  141.8075  160.1350 O.2     1  UNL1       -0.4534
     13 C         140.1610  142.5118  158.8642 C.ar    1  UNL1        0.1502
     14 H         143.0330  145.6106  158.4360 H       1  UNL1        0.2922
     15 H         139.4305  142.9049  154.2207 H       1  UNL1        0.2922
     16 C         143.8744  145.0940  164.0405 C.3     1  UNL1        0.0897
     17 N         143.2063  144.7185  162.7510 N.3     1  UNL1       -0.2694
     18 C         143.8624  143.7386  161.8240 C.3     1  UNL1        0.0726
     19 C         143.1943  143.3630  160.5346 C.3     1  UNL1        0.0244
     20 C         141.8700  143.9673  160.1722 C.3     1  UNL1        0.0580
     21 C         141.2140  144.9471  161.0993 C.3     1  UNL1        0.1306
     22 O         139.8897  145.5514  160.7369 O.3     1  UNL1       -0.3827
     23 C         141.8821  145.3227  162.3887 C.3     1  UNL1        0.1020
     24 H         139.6085  146.1588  161.4390 H       1  UNL1        0.2104
     25 C         138.3745  140.0233  161.3872 C.2     1  UNL1        0.0377
     26 C         139.2532  140.1434  162.5969 C.2     1  UNL1        0.0048
     27 C         138.8804  139.4391  163.8678 C.ar    1  UNL1        0.0213
     28 C         139.1538  137.9721  164.0202 C.ar    1  UNL1        0.0585
     29 CL        139.8000  137.2095  162.9018 Cl      1  UNL1       -0.0822
     30 C         138.7810  137.2679  165.2910 C.ar    1  UNL1        0.0114
     31 C         138.1347  138.0305  166.4093 C.ar    1  UNL1        0.0017
     32 C         137.8614  139.4975  166.2569 C.ar    1  UNL1        0.0114
     33 C         138.2342  140.2017  164.9861 C.ar    1  UNL1        0.0585
     34 CL        137.9608  141.6688  164.8337 Cl      1  UNL1       -0.0822
@<TRIPOS>BOND
     1    16    17    1
     2    17    18    1
     3    18    19    1
     4    19    20    1
     5    20     1    1
     6     1     2   ar
     7     2     3    1
     8     2     4   ar
     9     4     5   ar
    10     5     6    1
    11     5     7   ar
    12     7     8   ar
    13     8     9    2
    14     8    10   ar
    15    10    11   ar
    16    11    25    1
    17    25    26    2
    18    26    27    1
    19    27    28   ar
    20    28    29    1
    21    28    30   ar
    22    30    31   ar
    23    31    32   ar
    24    32    33   ar
    25    33    34    1
    26    11    12   ar
    27    12    13   ar
    28    20    21    1
    29    21    22    1
    30    21    23    1
    31    23    17    1
    32    13     1   ar
    33    13     7   ar
    34    33    27   ar
    35     3    14    1
    36     6    15    1
    37    22    24    1
@<TRIPOS>MOLECULE
*****
 34 37 0 0 0
SMALL
GASTEIGER

@<TRIPOS>ATOM
      1 C         141.6679  141.1134  165.3378 C.ar    1  UNL1        0.0484
      2 C         141.9883  140.8810  166.7846 C.ar    1  UNL1        0.1356
      3 O         142.8986  139.7562  167.1800 O.3     1  UNL1       -0.5056
      4 C         141.3984  141.7734  167.8361 C.ar    1  UNL1        0.0732
      5 C         140.4882  142.8982  167.4407 C.ar    1  UNL1        0.1426
      6 O         139.8983  143.7906  168.4922 O.3     1  UNL1       -0.5052
      7 C         140.1677  143.1306  165.9939 C.ar    1  UNL1        0.1070
      8 C         139.2575  144.2553  165.5985 C.ar    1  UNL1        0.2046
      9 O         138.6676  145.1478  166.6500 O.2     1  UNL1       -0.2863
     10 C         138.9371  144.4877  164.1517 C.ar    1  UNL1        0.0797
     11 C         139.5270  143.5953  163.1002 C.ar    1  UNL1        0.1485
     12 O         140.4372  142.4705  163.4955 O.2     1  UNL1       -0.4534
     13 C         140.7576  142.2382  164.9424 C.ar    1  UNL1        0.1502
     14 H         143.2670  139.1987  166.5232 H       1  UNL1        0.2922
     15 H         140.0984  143.6455  169.3960 H       1  UNL1        0.2922
     16 C         144.0274  137.5437  161.1318 C.3     1  UNL1        0.0897
     17 N         143.4375  138.4361  162.1833 N.3     1  UNL1       -0.2694
     18 C         142.1832  138.0268  162.8969 C.3     1  UNL1        0.0726
     19 C         141.5933  138.9192  163.9484 C.3     1  UNL1        0.0244
     20 C         142.2578  140.2209  164.2863 C.3     1  UNL1        0.0580
     21 C         143.5120  140.6302  163.5727 C.3     1  UNL1        0.1306
     22 O         144.1765  141.9319  163.9105 O.3     1  UNL1       -0.3827
     23 C         144.1019  139.7378  162.5212 C.3     1  UNL1        0.1020
     24 H         144.9689  142.0424  163.3620 H       1  UNL1        0.2104
     25 C         139.2066  143.8276  161.6533 C.2     1  UNL1        0.0377
     26 C         140.0352  143.1743  160.5873 C.2     1  UNL1        0.0048
     27 C         139.7148  143.4067  159.1404 C.ar    1  UNL1        0.0213
     28 C         138.7905  142.4724  158.4175 C.ar    1  UNL1        0.0585
     29 CL        138.1866  141.3056  159.1414 Cl      1  UNL1       -0.0822
     30 C         138.4701  142.7048  156.9707 C.ar    1  UNL1        0.0114
     31 C         139.0741  143.8715  156.2468 C.ar    1  UNL1        0.0017
     32 C         139.9984  144.8058  156.9698 C.ar    1  UNL1        0.0114
     33 C         140.3187  144.5734  158.4166 C.ar    1  UNL1        0.0585
     34 CL        141.2431  145.5077  159.1396 Cl      1  UNL1       -0.0822
@<TRIPOS>BOND
     1    16    17    1
     2    17    18    1
     3    18    19    1
     4    19    20    1
     5    20     1    1
     6     1     2   ar
     7     2     3    1
     8     2     4   ar
     9     4     5   ar
    10     5     6    1
    11     5     7   ar
    12     7     8   ar
    13     8     9    2
    14     8    10   ar
    15    10    11   ar
    16    11    25    1
    17    25    26    2
    18    26    27    1
    19    27    28   ar
    20    28    29    1
    21    28    30   ar
    22    30    31   ar
    23    31    32   ar
    24    32    33   ar
    25    33    34    1
    26    11    12   ar
    27    12    13   ar
    28    20    21    1
    29    21    22    1
    30    21    23    1
    31    23    17    1
    32    13     1   ar
    33    13     7   ar
    34    33    27   ar
    35     3    14    1
    36     6    15    1
    37    22    24    1
