@<TRIPOS>MOLECULE
*****
 25 27 0 0 0
SMALL
GASTEIGER

@<TRIPOS>ATOM
      1 C         138.7596  141.8220  163.4949 C.2     1  UNL1        0.2694
      2 O         137.4250  141.1843  163.2459 O.2     1  UNL1       -0.2682
      3 N         139.7471  141.1617  164.4110 N.am    1  UNL1       -0.2719
      4 C         139.3999  139.8638  165.0779 C.3     1  UNL1        0.1111
      5 C         140.3873  139.2036  165.9939 C.3     1  UNL1        0.0942
      6 N         141.7220  139.8413  166.2429 N.3     1  UNL1       -0.2632
      7 C         142.0692  141.1392  165.5760 C.3     1  UNL1        0.0942
      8 C         141.0818  141.7994  164.6600 C.3     1  UNL1        0.1111
      9 C         140.2990  145.3631  159.8933 C.3     1  UNL1        0.1538
     10 N         139.8145  144.7476  161.1725 N.ar    1  UNL1       -0.2464
     11 C         139.4679  145.4869  162.4309 C.ar    1  UNL1        0.1082
     12 C         139.0306  144.4809  163.4540 C.ar    1  UNL1        0.1001
     13 CL        138.5937  144.7829  164.8568 Cl      1  UNL1       -0.0788
     14 C         139.1068  143.1199  162.8280 C.ar    1  UNL1        0.1662
     15 N         139.5913  143.2847  161.4180 N.ar    1  UNL1       -0.1637
     16 C         142.7094  139.1811  167.1589 C.3     1  UNL1        0.1424
     17 C         142.5425  139.2901  168.6456 C.2     1  UNL1        0.1892
     18 O         143.1923  138.2843  169.5490 O.2     1  UNL1       -0.2899
     19 C         141.7259  140.4049  169.2289 C.ar    1  UNL1        0.0362
     20 C         142.3609  141.7360  169.5027 C.ar    1  UNL1        0.0052
     21 C         141.5442  142.8507  170.0860 C.ar    1  UNL1        0.0297
     22 C         140.0925  142.6345  170.3954 C.ar    1  UNL1        0.1401
     23 F         139.2758  143.7494  170.9788 F       1  UNL1       -0.2042
     24 C         139.4575  141.3035  170.1216 C.ar    1  UNL1        0.0297
     25 C         140.2742  140.1887  169.5383 C.ar    1  UNL1        0.0052
@<TRIPOS>BOND
     1     9    10    1
     2    10    11   ar
     3    11    12   ar
     4    12    13    1
     5    12    14   ar
     6    14     1    1
     7     1     2    2
     8     1     3   am
     9     3     4    1
    10     4     5    1
    11     5     6    1
    12     6    16    1
    13    16    17    1
    14    17    18    2
    15    17    19    1
    16    19    20   ar
    17    20    21   ar
    18    21    22   ar
    19    22    23    1
    20    22    24   ar
    21    24    25   ar
    22     6     7    1
    23     7     8    1
    24    14    15   ar
    25    15    10   ar
    26     8     3    1
    27    25    19   ar
@<TRIPOS>MOLECULE
*****
 25 27 0 0 0
SMALL
GASTEIGER

@<TRIPOS>ATOM
      1 C         143.0989  143.9929  162.4518 C.2     1  UNL1        0.2694
      2 O         144.4386  144.6636  162.5238 O.2     1  UNL1       -0.2682
      3 N         142.7782  142.8567  163.3771 N.am    1  UNL1       -0.2719
      4 C         143.7972  142.3912  164.3745 C.3     1  UNL1        0.1111
      5 C         143.4765  141.2551  165.2998 C.3     1  UNL1        0.0942
      6 N         142.1368  140.5844  165.2278 N.3     1  UNL1       -0.2632
      7 C         141.1177  141.0499  164.2304 C.3     1  UNL1        0.0942
      8 C         141.4384  142.1860  163.3051 C.3     1  UNL1        0.1111
      9 C         140.6107  144.9721  157.8986 C.3     1  UNL1        0.1538
     10 N         140.9361  144.9085  159.3615 N.ar    1  UNL1       -0.2464
     11 C         140.0871  145.4410  160.4777 C.ar    1  UNL1        0.1082
     12 C         140.7939  145.1628  161.7711 C.ar    1  UNL1        0.1001
     13 CL        140.3013  145.5253  163.1407 Cl      1  UNL1       -0.0788
     14 C         142.0798  144.4584  161.4544 C.ar    1  UNL1        0.1662
     15 N         142.1677  144.3012  159.9652 N.ar    1  UNL1       -0.1637
     16 C         141.8161  139.4482  166.1531 C.3     1  UNL1        0.1424
     17 C         142.1501  139.5517  167.6118 C.2     1  UNL1        0.1892
     18 O         143.2129  138.6730  168.2020 O.2     1  UNL1       -0.2899
     19 C         141.4213  140.5339  168.4802 C.ar    1  UNL1        0.0362
     20 C         140.1236  140.1464  169.1250 C.ar    1  UNL1        0.0052
     21 C         139.3949  141.1286  169.9934 C.ar    1  UNL1        0.0297
     22 C         139.9639  142.4983  170.2170 C.ar    1  UNL1        0.1401
     23 F         139.2350  143.4806  171.0855 F       1  UNL1       -0.2042
     24 C         141.2615  142.8859  169.5722 C.ar    1  UNL1        0.0297
     25 C         141.9902  141.9037  168.7038 C.ar    1  UNL1        0.0052
@<TRIPOS>BOND
     1     9    10    1
     2    10    11   ar
     3    11    12   ar
     4    12    13    1
     5    12    14   ar
     6    14     1    1
     7     1     2    2
     8     1     3   am
     9     3     4    1
    10     4     5    1
    11     5     6    1
    12     6    16    1
    13    16    17    1
    14    17    18    2
    15    17    19    1
    16    19    20   ar
    17    20    21   ar
    18    21    22   ar
    19    22    23    1
    20    22    24   ar
    21    24    25   ar
    22     6     7    1
    23     7     8    1
    24    14    15   ar
    25    15    10   ar
    26     8     3    1
    27    25    19   ar
@<TRIPOS>MOLECULE
*****
 25 27 0 0 0
SMALL
GASTEIGER

@<TRIPOS>ATOM
      1 C         139.5223  139.6861  165.9666 C.2     1  UNL1        0.2694
      2 O         139.1309  138.3586  165.3883 O.2     1  UNL1       -0.2682
      3 N         139.2412  140.9479  165.2056 N.am    1  UNL1       -0.2719
      4 C         138.5688  140.8821  163.8664 C.3     1  UNL1        0.1111
      5 C         138.2878  142.1438  163.1055 C.3     1  UNL1        0.0942
      6 N         138.6792  143.4714  163.6838 N.3     1  UNL1       -0.2632
      7 C         139.3516  143.5372  165.0230 C.3     1  UNL1        0.0942
      8 C         139.6326  142.2755  165.7839 C.3     1  UNL1        0.1111
      9 C         140.3175  140.0403  171.1745 C.3     1  UNL1        0.1538
     10 N         140.5602  139.9148  169.6996 N.ar    1  UNL1       -0.2464
     11 C         141.8986  139.7917  169.0336 C.ar    1  UNL1        0.1082
     12 C         141.6727  139.6911  167.5541 C.ar    1  UNL1        0.1001
     13 CL        142.7378  139.5538  166.5069 Cl      1  UNL1       -0.0788
     14 C         140.1947  139.7520  167.3057 C.ar    1  UNL1        0.1662
     15 N         139.5071  139.8902  168.6317 N.ar    1  UNL1       -0.1637
     16 C         138.3981  144.7332  162.9228 C.3     1  UNL1        0.1424
     17 C         139.4982  145.4098  162.1600 C.2     1  UNL1        0.1892
     18 O         139.1923  146.5997  161.2994 O.2     1  UNL1       -0.2899
     19 C         140.9043  144.8965  162.2578 C.ar    1  UNL1        0.0362
     20 C         141.8179  145.4117  163.3301 C.ar    1  UNL1        0.0052
     21 C         143.2240  144.8985  163.4278 C.ar    1  UNL1        0.0297
     22 C         143.7164  143.8700  162.4532 C.ar    1  UNL1        0.1401
     23 F         145.1225  143.3568  162.5509 F       1  UNL1       -0.2042
     24 C         142.8028  143.3549  161.3809 C.ar    1  UNL1        0.0297
     25 C         141.3968  143.8681  161.2832 C.ar    1  UNL1        0.0052
@<TRIPOS>BOND
     1     9    10    1
     2    10    11   ar
     3    11    12   ar
     4    12    13    1
     5    12    14   ar
     6    14     1    1
     7     1     2    2
     8     1     3   am
     9     3     4    1
    10     4     5    1
    11     5     6    1
    12     6    16    1
    13    16    17    1
    14    17    18    2
    15    17    19    1
    16    19    20   ar
    17    20    21   ar
    18    21    22   ar
    19    22    23    1
    20    22    24   ar
    21    24    25   ar
    22     6     7    1
    23     7     8    1
    24    14    15   ar
    25    15    10   ar
    26     8     3    1
    27    25    19   ar
@<TRIPOS>MOLECULE
*****
 25 27 0 0 0
SMALL
GASTEIGER

@<TRIPOS>ATOM
      1 C         139.6171  140.4334  166.8837 C.2     1  UNL1        0.2694
      2 O         139.1158  139.0383  166.6547 O.2     1  UNL1       -0.2682
      3 N         139.3128  141.5127  165.8874 N.am    1  UNL1       -0.2719
      4 C         138.5072  141.1969  164.6622 C.3     1  UNL1        0.1111
      5 C         138.2029  142.2762  163.6660 C.3     1  UNL1        0.0942
      6 N         138.7042  143.6713  163.8950 N.3     1  UNL1       -0.2632
      7 C         139.5098  143.9871  165.1202 C.3     1  UNL1        0.0942
      8 C         139.8141  142.9078  166.1164 C.3     1  UNL1        0.1111
      9 C         143.6114  141.8130  170.0497 C.3     1  UNL1        0.1538
     10 N         142.2587  141.3833  169.5642 N.ar    1  UNL1       -0.2464
     11 C         141.0663  141.0869  170.4246 C.ar    1  UNL1        0.1082
     12 C         139.9316  140.6950  169.5252 C.ar    1  UNL1        0.1001
     13 CL        138.5486  140.3156  169.9649 Cl      1  UNL1       -0.0788
     14 C         140.4228  140.7492  168.1089 C.ar    1  UNL1        0.1662
     15 N         141.8610  141.1746  168.1330 N.ar    1  UNL1       -0.1637
     16 C         138.3999  144.7506  162.8987 C.3     1  UNL1        0.1424
     17 C         139.5160  145.4161  162.1495 C.2     1  UNL1        0.1892
     18 O         139.2358  146.6204  161.3002 O.2     1  UNL1       -0.2899
     19 C         140.9124  144.8774  162.2495 C.ar    1  UNL1        0.0362
     20 C         141.3538  143.7654  161.3448 C.ar    1  UNL1        0.0052
     21 C         142.7502  143.2267  161.4449 C.ar    1  UNL1        0.0297
     22 C         143.7050  143.8000  162.4497 C.ar    1  UNL1        0.1401
     23 F         145.1014  143.2612  162.5498 F       1  UNL1       -0.2042
     24 C         143.2635  144.9119  163.3544 C.ar    1  UNL1        0.0297
     25 C         141.8672  145.4506  163.2544 C.ar    1  UNL1        0.0052
@<TRIPOS>BOND
     1     9    10    1
     2    10    11   ar
     3    11    12   ar
     4    12    13    1
     5    12    14   ar
     6    14     1    1
     7     1     2    2
     8     1     3   am
     9     3     4    1
    10     4     5    1
    11     5     6    1
    12     6    16    1
    13    16    17    1
    14    17    18    2
    15    17    19    1
    16    19    20   ar
    17    20    21   ar
    18    21    22   ar
    19    22    23    1
    20    22    24   ar
    21    24    25   ar
    22     6     7    1
    23     7     8    1
    24    14    15   ar
    25    15    10   ar
    26     8     3    1
    27    25    19   ar
@<TRIPOS>MOLECULE
*****
 25 27 0 0 0
SMALL
GASTEIGER

@<TRIPOS>ATOM
      1 C         138.4793  139.3538  160.7217 C.2     1  UNL1        0.2694
      2 O         138.1828  138.0119  161.3230 O.2     1  UNL1       -0.2682
      3 N         138.2836  140.5995  161.5343 N.am    1  UNL1       -0.2719
      4 C         137.7914  140.5032  162.9479 C.3     1  UNL1        0.1111
      5 C         137.5957  141.7488  163.7604 C.3     1  UNL1        0.0942
      6 N         137.8922  143.0907  163.1591 N.3     1  UNL1       -0.2632
      7 C         138.3844  143.1869  161.7455 C.3     1  UNL1        0.0942
      8 C         138.5801  141.9413  160.9331 C.3     1  UNL1        0.1111
      9 C         138.6501  140.1765  155.5088 C.3     1  UNL1        0.1538
     10 N         139.0500  139.8282  156.9119 N.ar    1  UNL1       -0.2464
     11 C         140.4078  139.3682  157.3534 C.ar    1  UNL1        0.1082
     12 C         140.3592  139.1345  158.8343 C.ar    1  UNL1        0.1001
     13 CL        141.4985  138.6672  159.6909 Cl      1  UNL1       -0.0788
     14 C         138.9715  139.4501  159.3081 C.ar    1  UNL1        0.1662
     15 N         138.1623  139.8788  158.1200 N.ar    1  UNL1       -0.1637
     16 C         137.6965  144.3363  163.9717 C.3     1  UNL1        0.1424
     17 C         138.6584  144.6727  165.0723 C.2     1  UNL1        0.1892
     18 O         138.2048  145.5009  166.2378 O.2     1  UNL1       -0.2899
     19 C         140.0741  144.1809  165.0074 C.ar    1  UNL1        0.0362
     20 C         140.5198  143.0590  165.8977 C.ar    1  UNL1        0.0052
     21 C         141.9354  142.5673  165.8328 C.ar    1  UNL1        0.0297
     22 C         142.9053  143.1975  164.8777 C.ar    1  UNL1        0.1401
     23 F         144.3210  142.7057  164.8129 F       1  UNL1       -0.2042
     24 C         142.4596  144.3194  163.9875 C.ar    1  UNL1        0.0297
     25 C         141.0440  144.8111  164.0523 C.ar    1  UNL1        0.0052
@<TRIPOS>BOND
     1     9    10    1
     2    10    11   ar
     3    11    12   ar
     4    12    13    1
     5    12    14   ar
     6    14     1    1
     7     1     2    2
     8     1     3   am
     9     3     4    1
    10     4     5    1
    11     5     6    1
    12     6    16    1
    13    16    17    1
    14    17    18    2
    15    17    19    1
    16    19    20   ar
    17    20    21   ar
    18    21    22   ar
    19    22    23    1
    20    22    24   ar
    21    24    25   ar
    22     6     7    1
    23     7     8    1
    24    14    15   ar
    25    15    10   ar
    26     8     3    1
    27    25    19   ar
@<TRIPOS>MOLECULE
*****
 25 27 0 0 0
SMALL
GASTEIGER

@<TRIPOS>ATOM
      1 C         142.0340  138.1265  161.5204 C.2     1  UNL1        0.2694
      2 O         141.3270  137.0782  162.3274 O.2     1  UNL1       -0.2682
      3 N         142.8452  139.1833  162.2098 N.am    1  UNL1       -0.2719
      4 C         142.9494  139.1918  163.7061 C.3     1  UNL1        0.1111
      5 C         143.7606  140.2486  164.3953 C.3     1  UNL1        0.0942
      6 N         144.4675  141.2969  163.5883 N.3     1  UNL1       -0.2632
      7 C         144.3633  141.2884  162.0920 C.3     1  UNL1        0.0942
      8 C         143.5521  140.2316  161.4027 C.3     1  UNL1        0.1111
      9 C         143.1671  137.4229  156.4114 C.3     1  UNL1        0.1538
     10 N         142.4506  137.7945  157.6757 N.ar    1  UNL1       -0.2464
     11 C         141.0880  138.4152  157.7672 C.ar    1  UNL1        0.1082
     12 C         140.7662  138.6151  159.2185 C.ar    1  UNL1        0.1001
     13 CL        139.5026  139.2080  159.7678 Cl      1  UNL1       -0.0788
     14 C         141.9297  138.1180  160.0241 C.ar    1  UNL1        0.1662
     15 N         142.9708  137.6108  159.0706 N.ar    1  UNL1       -0.1637
     16 C         145.2787  142.3537  164.2777 C.3     1  UNL1        0.1424
     17 C         144.5925  143.4411  165.0501 C.2     1  UNL1        0.1892
     18 O         145.2950  144.1036  166.1980 O.2     1  UNL1       -0.2899
     19 C         143.2037  143.8660  164.6748 C.ar    1  UNL1        0.0362
     20 C         142.0185  143.1951  165.3033 C.ar    1  UNL1        0.0052
     21 C         140.6298  143.6200  164.9280 C.ar    1  UNL1        0.0297
     22 C         140.4263  144.7158  163.9240 C.ar    1  UNL1        0.1401
     23 F         139.0375  145.1407  163.5487 F       1  UNL1       -0.2042
     24 C         141.6115  145.3866  163.2955 C.ar    1  UNL1        0.0297
     25 C         143.0002  144.9617  163.6708 C.ar    1  UNL1        0.0052
@<TRIPOS>BOND
     1     9    10    1
     2    10    11   ar
     3    11    12   ar
     4    12    13    1
     5    12    14   ar
     6    14     1    1
     7     1     2    2
     8     1     3   am
     9     3     4    1
    10     4     5    1
    11     5     6    1
    12     6    16    1
    13    16    17    1
    14    17    18    2
    15    17    19    1
    16    19    20   ar
    17    20    21   ar
    18    21    22   ar
    19    22    23    1
    20    22    24   ar
    21    24    25   ar
    22     6     7    1
    23     7     8    1
    24    14    15   ar
    25    15    10   ar
    26     8     3    1
    27    25    19   ar
@<TRIPOS>MOLECULE
*****
 25 27 0 0 0
SMALL
GASTEIGER

@<TRIPOS>ATOM
      1 C         139.7642  144.5178  162.0039 C.2     1  UNL1        0.2694
      2 O         138.5617  145.3117  162.4207 O.2     1  UNL1       -0.2682
      3 N         140.5433  143.7442  163.0260 N.am    1  UNL1       -0.2719
      4 C         140.1199  143.7645  164.4648 C.3     1  UNL1        0.1111
      5 C         140.8989  142.9910  165.4869 C.3     1  UNL1        0.0942
      6 N         142.1015  142.1971  165.0701 N.3     1  UNL1       -0.2632
      7 C         142.5249  142.1767  163.6313 C.3     1  UNL1        0.0942
      8 C         141.7458  142.9503  162.6092 C.3     1  UNL1        0.1111
      9 C         142.2306  145.6652  157.4783 C.3     1  UNL1        0.1538
     10 N         141.3213  145.0249  158.4849 N.ar    1  UNL1       -0.2464
     11 C         140.3571  143.9074  158.2170 C.ar    1  UNL1        0.1082
     12 C         139.6565  143.5815  159.5026 C.ar    1  UNL1        0.1001
     13 CL        138.6087  142.5251  159.6924 Cl      1  UNL1       -0.0788
     14 C         140.1876  144.4974  160.5651 C.ar    1  UNL1        0.1662
     15 N         141.2165  145.3895  159.9361 N.ar    1  UNL1       -0.1637
     16 C         142.8806  141.4235  166.0922 C.3     1  UNL1        0.1424
     17 C         142.3717  140.0988  166.5781 C.2     1  UNL1        0.1892
     18 O         142.8410  139.5518  167.8936 O.2     1  UNL1       -0.2899
     19 C         141.3936  139.3209  165.7485 C.ar    1  UNL1        0.0362
     20 C         141.8864  138.4273  164.6492 C.ar    1  UNL1        0.0052
     21 C         140.9083  137.6495  163.8196 C.ar    1  UNL1        0.0297
     22 C         139.4373  137.7653  164.0894 C.ar    1  UNL1        0.1401
     23 F         138.4591  136.9874  163.2597 F       1  UNL1       -0.2042
     24 C         138.9444  138.6589  165.1886 C.ar    1  UNL1        0.0297
     25 C         139.9226  139.4367  166.0182 C.ar    1  UNL1        0.0052
@<TRIPOS>BOND
     1     9    10    1
     2    10    11   ar
     3    11    12   ar
     4    12    13    1
     5    12    14   ar
     6    14     1    1
     7     1     2    2
     8     1     3   am
     9     3     4    1
    10     4     5    1
    11     5     6    1
    12     6    16    1
    13    16    17    1
    14    17    18    2
    15    17    19    1
    16    19    20   ar
    17    20    21   ar
    18    21    22   ar
    19    22    23    1
    20    22    24   ar
    21    24    25   ar
    22     6     7    1
    23     7     8    1
    24    14    15   ar
    25    15    10   ar
    26     8     3    1
    27    25    19   ar
@<TRIPOS>MOLECULE
*****
 25 27 0 0 0
SMALL
GASTEIGER

@<TRIPOS>ATOM
      1 C         139.6900  144.2285  161.7943 C.2     1  UNL1        0.2694
      2 O         138.9950  145.4332  162.3563 O.2     1  UNL1       -0.2682
      3 N         140.6023  143.4152  162.6641 N.am    1  UNL1       -0.2719
      4 C         140.8196  143.8066  164.0957 C.3     1  UNL1        0.1111
      5 C         141.7318  142.9934  164.9653 C.3     1  UNL1        0.0942
      6 N         142.4268  141.7887  164.4034 N.3     1  UNL1       -0.2632
      7 C         142.2095  141.3973  162.9718 C.3     1  UNL1        0.0942
      8 C         141.2973  142.2105  162.1021 C.3     1  UNL1        0.1111
      9 C         137.7752  141.8974  157.4607 C.3     1  UNL1        0.1538
     10 N         138.5926  142.7656  158.3707 N.ar    1  UNL1       -0.2464
     11 C         139.6842  143.7039  157.9486 C.ar    1  UNL1        0.1082
     12 C         140.2281  144.3661  159.1797 C.ar    1  UNL1        0.1001
     13 CL        141.3333  145.3793  159.2205 Cl      1  UNL1       -0.0788
     14 C         139.4727  143.8371  160.3627 C.ar    1  UNL1        0.1662
     15 N         138.4619  142.8479  159.8628 N.ar    1  UNL1       -0.1637
     16 C         143.3391  140.9754  165.2732 C.3     1  UNL1        0.1424
     17 C         142.8843  139.6475  165.8020 C.2     1  UNL1        0.1892
     18 O         143.8774  138.5424  166.0084 O.2     1  UNL1       -0.2899
     19 C         141.4364  139.4245  166.1243 C.ar    1  UNL1        0.0362
     20 C         140.5791  138.6107  165.2009 C.ar    1  UNL1        0.0052
     21 C         139.1312  138.3878  165.5233 C.ar    1  UNL1        0.0297
     22 C         138.5407  138.9787  166.7691 C.ar    1  UNL1        0.1401
     23 F         137.0927  138.7557  167.0915 F       1  UNL1       -0.2042
     24 C         139.3979  139.7925  167.6926 C.ar    1  UNL1        0.0297
     25 C         140.8458  140.0154  167.3702 C.ar    1  UNL1        0.0052
@<TRIPOS>BOND
     1     9    10    1
     2    10    11   ar
     3    11    12   ar
     4    12    13    1
     5    12    14   ar
     6    14     1    1
     7     1     2    2
     8     1     3   am
     9     3     4    1
    10     4     5    1
    11     5     6    1
    12     6    16    1
    13    16    17    1
    14    17    18    2
    15    17    19    1
    16    19    20   ar
    17    20    21   ar
    18    21    22   ar
    19    22    23    1
    20    22    24   ar
    21    24    25   ar
    22     6     7    1
    23     7     8    1
    24    14    15   ar
    25    15    10   ar
    26     8     3    1
    27    25    19   ar
@<TRIPOS>MOLECULE
*****
 25 27 0 0 0
SMALL
GASTEIGER

@<TRIPOS>ATOM
      1 C         141.7701  143.8983  162.7299 C.2     1  UNL1        0.2694
      2 O         141.5002  145.3610  162.9243 O.2     1  UNL1       -0.2682
      3 N         141.0328  142.8838  163.5529 N.am    1  UNL1       -0.2719
      4 C         140.0257  143.3319  164.5701 C.3     1  UNL1        0.1111
      5 C         139.2885  142.3173  165.3930 C.3     1  UNL1        0.0942
      6 N         139.5584  140.8547  165.1986 N.3     1  UNL1       -0.2632
      7 C         140.5655  140.4066  164.1814 C.3     1  UNL1        0.0942
      8 C         141.3027  141.4211  163.3585 C.3     1  UNL1        0.1111
      9 C         144.0854  142.7388  158.1283 C.3     1  UNL1        0.1538
     10 N         143.8415  142.9172  159.5975 N.ar    1  UNL1       -0.2464
     11 C         144.8126  142.6040  160.6970 C.ar    1  UNL1        0.1082
     12 C         144.1549  142.9334  162.0042 C.ar    1  UNL1        0.1001
     13 CL        144.7673  142.7740  163.3641 Cl      1  UNL1       -0.0788
     14 C         142.7772  143.4502  161.7127 C.ar    1  UNL1        0.1662
     15 N         142.5835  143.4402  160.2252 N.ar    1  UNL1       -0.1637
     16 C         138.8212  139.8401  166.0216 C.3     1  UNL1        0.1424
     17 C         139.0738  139.7444  167.4970 C.2     1  UNL1        0.1892
     18 O         138.0832  139.0503  168.3841 O.2     1  UNL1       -0.2899
     19 C         140.3171  140.3429  168.0855 C.ar    1  UNL1        0.0362
     20 C         141.6420  139.6696  167.8827 C.ar    1  UNL1        0.0052
     21 C         142.8852  140.2680  168.4712 C.ar    1  UNL1        0.0297
     22 C         142.8034  141.5398  169.2623 C.ar    1  UNL1        0.1401
     23 F         144.0467  142.1383  169.8507 F       1  UNL1       -0.2042
     24 C         141.4785  142.2131  169.4650 C.ar    1  UNL1        0.0297
     25 C         140.2353  141.6147  168.8766 C.ar    1  UNL1        0.0052
@<TRIPOS>BOND
     1     9    10    1
     2    10    11   ar
     3    11    12   ar
     4    12    13    1
     5    12    14   ar
     6    14     1    1
     7     1     2    2
     8     1     3   am
     9     3     4    1
    10     4     5    1
    11     5     6    1
    12     6    16    1
    13    16    17    1
    14    17    18    2
    15    17    19    1
    16    19    20   ar
    17    20    21   ar
    18    21    22   ar
    19    22    23    1
    20    22    24   ar
    21    24    25   ar
    22     6     7    1
    23     7     8    1
    24    14    15   ar
    25    15    10   ar
    26     8     3    1
    27    25    19   ar
