@<TRIPOS>MOLECULE
*****
 23 26 0 0 0
SMALL
GASTEIGER

@<TRIPOS>ATOM
      1 C         138.6138  139.1802  164.2481 C.2     1  UNL1        0.3428
      2 O         137.8653  140.1734  163.4096 O.2     1  UNL1       -0.2448
      3 C         141.6735  142.8519  169.5195 C.3     1  UNL1        0.0268
      4 C         140.9542  142.0059  168.5112 C.2     1  UNL1       -0.0371
      5 C         141.2267  142.1888  167.0476 C.2     1  UNL1        0.0033
      6 C         140.5072  141.3427  166.0393 C.2     1  UNL1        0.0584
      7 CL        140.7797  141.5257  164.5756 Cl      1  UNL1       -0.0822
      8 C         139.5154  140.3138  166.4946 C.2     1  UNL1        0.0322
      9 C         138.6599  139.3407  165.7388 C.2     1  UNL1        0.0966
     10 C         137.8587  138.5564  166.7352 C.2     1  UNL1        0.1049
     11 N         138.2190  139.0447  168.1069 N.2     1  UNL1       -0.2476
     12 C         139.2429  140.1308  167.9583 C.2     1  UNL1        0.0641
     13 C         139.9623  140.9769  168.9666 C.3     1  UNL1        0.0678
     14 O         139.3162  138.0264  163.5959 O.3     1  UNL1       -0.4454
     15 C         140.4682  137.3608  164.2888 C.3     1  UNL1        0.2087
     16 C         141.8126  138.0255  164.3156 C.3     1  UNL1        0.0445
     17 C         142.5140  138.3514  163.0304 C.3     1  UNL1        0.0210
     18 C         143.8584  139.0161  163.0573 C.3     1  UNL1        0.0722
     19 N         144.5014  139.3549  164.3695 N.3     1  UNL1       -0.2727
     20 C         143.8000  139.0290  165.6547 C.3     1  UNL1        0.0722
     21 C         142.4556  138.3643  165.6278 C.3     1  UNL1        0.0210
     22 C         143.7637  138.9910  164.4051 C.3     1  UNL1        0.0722
     23 C         142.5481  138.3900  164.3809 C.3     1  UNL1        0.0210
@<TRIPOS>BOND
     1     3     4    1
     2     4     5    2
     3     5     6    1
     4     6     7    1
     5     6     8    2
     6     8     9    1
     7     9     1    1
     8     1     2    2
     9     1    14    1
    10    14    15    1
    11    15    16    1
    12    16    17    1
    13    17    18    1
    14    18    19    1
    15    19    20    1
    16    20    21    1
    17    19    22    1
    18    22    23    1
    19     9    10    2
    20    10    11    1
    21    11    12    2
    22    12    13    1
    23    13     4    1
    24    12     8    1
    25    21    16    1
    26    23    16    1
@<TRIPOS>MOLECULE
*****
 23 26 0 0 0
SMALL
GASTEIGER

@<TRIPOS>ATOM
      1 C         142.8617  139.2174  166.2037 C.2     1  UNL1        0.3428
      2 O         143.8973  138.9394  165.1547 O.2     1  UNL1       -0.2448
      3 C         138.3625  144.5457  164.7901 C.3     1  UNL1        0.0268
      4 C         139.2005  143.3313  165.0600 C.2     1  UNL1       -0.0371
      5 C         140.6388  143.4856  165.4569 C.2     1  UNL1        0.0033
      6 C         141.4768  142.2710  165.7268 C.2     1  UNL1        0.0584
      7 CL        142.9150  142.4253  166.1237 Cl      1  UNL1       -0.0822
      8 C         140.8765  140.9023  165.5997 C.2     1  UNL1        0.0322
      9 C         141.4514  139.5315  165.8007 C.2     1  UNL1        0.0966
     10 C         140.3685  138.5300  165.5281 C.2     1  UNL1        0.1049
     11 N         139.1243  139.2819  165.1585 N.2     1  UNL1       -0.2476
     12 C         139.4382  140.7480  165.2028 C.2     1  UNL1        0.0641
     13 C         138.6002  141.9624  164.9329 C.3     1  UNL1        0.0678
     14 O         143.2365  139.1812  167.6557 O.3     1  UNL1       -0.4454
     15 C         142.2014  139.4607  168.7047 C.3     1  UNL1        0.2087
     16 C         142.0082  140.8581  169.2143 C.3     1  UNL1        0.0445
     17 C         143.1552  141.5925  169.8429 C.3     1  UNL1        0.0210
     18 C         142.9620  142.9900  170.3525 C.3     1  UNL1        0.0722
     19 N         141.6218  143.6531  170.2335 N.3     1  UNL1       -0.2727
     20 C         140.4748  142.9187  169.6050 C.3     1  UNL1        0.0722
     21 C         140.6680  141.5213  169.0954 C.3     1  UNL1        0.0210
     22 C         141.6795  142.8861  169.9398 C.3     1  UNL1        0.0722
     23 C         141.8540  141.6225  169.4790 C.3     1  UNL1        0.0210
@<TRIPOS>BOND
     1     3     4    1
     2     4     5    2
     3     5     6    1
     4     6     7    1
     5     6     8    2
     6     8     9    1
     7     9     1    1
     8     1     2    2
     9     1    14    1
    10    14    15    1
    11    15    16    1
    12    16    17    1
    13    17    18    1
    14    18    19    1
    15    19    20    1
    16    20    21    1
    17    19    22    1
    18    22    23    1
    19     9    10    2
    20    10    11    1
    21    11    12    2
    22    12    13    1
    23    13     4    1
    24    12     8    1
    25    21    16    1
    26    23    16    1
@<TRIPOS>MOLECULE
*****
 23 26 0 0 0
SMALL
GASTEIGER

@<TRIPOS>ATOM
      1 C         142.9753  138.9263  164.2003 C.2     1  UNL1        0.3428
      2 O         141.7904  138.3779  163.4619 O.2     1  UNL1       -0.2448
      3 C         140.3624  143.3251  169.1456 C.3     1  UNL1        0.0268
      4 C         140.9695  142.3196  168.2128 C.2     1  UNL1       -0.0371
      5 C         140.7970  142.4717  166.7305 C.2     1  UNL1        0.0033
      6 C         141.4042  141.4661  165.7976 C.2     1  UNL1        0.0584
      7 CL        141.2317  141.6182  164.3154 Cl      1  UNL1       -0.0822
      8 C         142.1838  140.3084  166.3470 C.2     1  UNL1        0.0322
      9 C         142.8920  139.1676  165.6784 C.2     1  UNL1        0.0966
     10 C         143.5022  138.3103  166.7475 C.2     1  UNL1        0.1049
     11 N         143.1711  138.9214  168.0767 N.2     1  UNL1       -0.2476
     12 C         142.3563  140.1563  167.8293 C.2     1  UNL1        0.0641
     13 C         141.7492  141.1618  168.7621 C.3     1  UNL1        0.0678
     14 O         144.2435  139.2335  163.4606 O.3     1  UNL1       -0.4454
     15 C         145.1529  140.3213  163.9504 C.3     1  UNL1        0.2087
     16 C         144.7643  141.7594  163.7751 C.3     1  UNL1        0.0445
     17 C         144.5313  142.3111  162.3999 C.3     1  UNL1        0.0210
     18 C         144.1426  143.7493  162.2247 C.3     1  UNL1        0.0722
     19 N         143.9869  144.6356  163.4248 N.3     1  UNL1       -0.2727
     20 C         144.2199  144.0839  164.8000 C.3     1  UNL1        0.0722
     21 C         144.6086  142.6457  164.9752 C.3     1  UNL1        0.0210
     22 C         144.2014  143.8542  163.5707 C.3     1  UNL1        0.0722
     23 C         144.5528  142.5538  163.7292 C.3     1  UNL1        0.0210
@<TRIPOS>BOND
     1     3     4    1
     2     4     5    2
     3     5     6    1
     4     6     7    1
     5     6     8    2
     6     8     9    1
     7     9     1    1
     8     1     2    2
     9     1    14    1
    10    14    15    1
    11    15    16    1
    12    16    17    1
    13    17    18    1
    14    18    19    1
    15    19    20    1
    16    20    21    1
    17    19    22    1
    18    22    23    1
    19     9    10    2
    20    10    11    1
    21    11    12    2
    22    12    13    1
    23    13     4    1
    24    12     8    1
    25    21    16    1
    26    23    16    1
@<TRIPOS>MOLECULE
*****
 23 26 0 0 0
SMALL
GASTEIGER

@<TRIPOS>ATOM
      1 C         138.7911  138.8754  163.8763 C.2     1  UNL1        0.3428
      2 O         139.3601  137.5991  163.3313 O.2     1  UNL1       -0.2448
      3 C         142.2576  142.5208  168.9088 C.3     1  UNL1        0.0268
      4 C         141.4422  141.6997  167.9546 C.2     1  UNL1       -0.0371
      5 C         141.7546  141.7241  166.4877 C.2     1  UNL1        0.0033
      6 C         140.9390  140.9029  165.5334 C.2     1  UNL1        0.0584
      7 CL        141.2514  140.9274  164.0665 Cl      1  UNL1       -0.0822
      8 C         139.8112  140.0572  166.0460 C.2     1  UNL1        0.0322
      9 C         138.8407  139.1495  165.3503 C.2     1  UNL1        0.0966
     10 C         137.9284  138.5641  166.3871 C.2     1  UNL1        0.1049
     11 N         138.3352  139.1099  167.7237 N.2     1  UNL1       -0.2476
     12 C         139.4988  140.0328  167.5129 C.2     1  UNL1        0.0641
     13 C         140.3143  140.8540  168.4672 C.3     1  UNL1        0.0678
     14 O         138.1724  139.8777  162.9475 O.3     1  UNL1       -0.4454
     15 C         137.3820  141.0259  163.5015 C.3     1  UNL1        0.2087
     16 C         137.9891  142.3964  163.5578 C.3     1  UNL1        0.0445
     17 C         138.4133  143.0813  162.2926 C.3     1  UNL1        0.0210
     18 C         139.0204  144.4518  162.3489 C.3     1  UNL1        0.0722
     19 N         139.2031  145.1374  163.6705 N.3     1  UNL1       -0.2727
     20 C         138.7789  144.4525  164.9357 C.3     1  UNL1        0.0722
     21 C         138.1718  143.0820  164.8794 C.3     1  UNL1        0.0210
     22 C         138.8659  144.3866  163.6898 C.3     1  UNL1        0.0722
     23 C         138.3170  143.1473  163.6390 C.3     1  UNL1        0.0210
@<TRIPOS>BOND
     1     3     4    1
     2     4     5    2
     3     5     6    1
     4     6     7    1
     5     6     8    2
     6     8     9    1
     7     9     1    1
     8     1     2    2
     9     1    14    1
    10    14    15    1
    11    15    16    1
    12    16    17    1
    13    17    18    1
    14    18    19    1
    15    19    20    1
    16    20    21    1
    17    19    22    1
    18    22    23    1
    19     9    10    2
    20    10    11    1
    21    11    12    2
    22    12    13    1
    23    13     4    1
    24    12     8    1
    25    21    16    1
    26    23    16    1
@<TRIPOS>MOLECULE
*****
 23 26 0 0 0
SMALL
GASTEIGER

@<TRIPOS>ATOM
      1 C         143.4163  138.9134  163.9938 C.2     1  UNL1        0.3428
      2 O         144.4818  139.7016  163.2913 O.2     1  UNL1       -0.2448
      3 C         140.5372  143.1641  168.9207 C.3     1  UNL1        0.0268
      4 C         141.1872  142.1819  167.9918 C.2     1  UNL1       -0.0371
      5 C         141.1561  142.4167  166.5106 C.2     1  UNL1        0.0033
      6 C         141.8061  141.4344  165.5818 C.2     1  UNL1        0.0584
      7 CL        141.7750  141.6692  164.1006 Cl      1  UNL1       -0.0822
      8 C         142.4872  140.2175  166.1341 C.2     1  UNL1        0.0322
      9 C         143.2085  139.0825  165.4697 C.2     1  UNL1        0.0966
     10 C         143.6854  138.1462  166.5402 C.2     1  UNL1        0.1049
     11 N         143.2588  138.7026  167.8662 N.2     1  UNL1       -0.2476
     12 C         142.5183  139.9827  167.6153 C.2     1  UNL1        0.0641
     13 C         141.8683  140.9649  168.5441 C.3     1  UNL1        0.0678
     14 O         142.5588  137.9561  163.2204 O.3     1  UNL1       -0.4454
     15 C         141.2813  137.4434  163.8166 C.3     1  UNL1        0.2087
     16 C         140.1309  138.3789  164.0429 C.3     1  UNL1        0.0445
     17 C         139.5274  138.5087  165.4100 C.3     1  UNL1        0.0210
     18 C         138.3769  139.4442  165.6362 C.3     1  UNL1        0.0722
     19 N         137.8299  140.2499  164.4953 N.3     1  UNL1       -0.2727
     20 C         138.4333  140.1201  163.1282 C.3     1  UNL1        0.0722
     21 C         139.5838  139.1846  162.9020 C.3     1  UNL1        0.0210
     22 C         138.4613  139.7505  164.3228 C.3     1  UNL1        0.0722
     23 C         139.5016  138.9046  164.1181 C.3     1  UNL1        0.0210
@<TRIPOS>BOND
     1     3     4    1
     2     4     5    2
     3     5     6    1
     4     6     7    1
     5     6     8    2
     6     8     9    1
     7     9     1    1
     8     1     2    2
     9     1    14    1
    10    14    15    1
    11    15    16    1
    12    16    17    1
    13    17    18    1
    14    18    19    1
    15    19    20    1
    16    20    21    1
    17    19    22    1
    18    22    23    1
    19     9    10    2
    20    10    11    1
    21    11    12    2
    22    12    13    1
    23    13     4    1
    24    12     8    1
    25    21    16    1
    26    23    16    1
@<TRIPOS>MOLECULE
*****
 23 26 0 0 0
SMALL
GASTEIGER

@<TRIPOS>ATOM
      1 C         139.1080  144.7065  164.6868 C.2     1  UNL1        0.3428
      2 O         138.4357  145.3505  165.8629 O.2     1  UNL1       -0.2448
      3 C         138.8041  137.6344  165.4119 C.3     1  UNL1        0.0268
      4 C         138.7827  139.1097  165.1417 C.2     1  UNL1       -0.0371
      5 C         139.5323  140.0478  166.0406 C.2     1  UNL1        0.0033
      6 C         139.5109  141.5232  165.7703 C.2     1  UNL1        0.0584
      7 CL        140.2606  142.4612  166.6692 Cl      1  UNL1       -0.0822
      8 C         138.7399  142.0604  164.6012 C.2     1  UNL1        0.0322
      9 C         138.5364  143.4553  164.0886 C.2     1  UNL1        0.0966
     10 C         137.6609  143.3794  162.8730 C.2     1  UNL1        0.1049
     11 N         137.3234  141.9375  162.6342 N.2     1  UNL1       -0.2476
     12 C         137.9902  141.1223  163.7023 C.2     1  UNL1        0.0641
     13 C         138.0116  139.6470  163.9725 C.3     1  UNL1        0.0678
     14 O         140.3518  145.3137  164.1088 O.3     1  UNL1       -0.4454
     15 C         141.2162  144.5126  163.1808 C.3     1  UNL1        0.2087
     16 C         142.2583  143.5883  163.7371 C.3     1  UNL1        0.0445
     17 C         142.1436  142.1090  163.5165 C.3     1  UNL1        0.0210
     18 C         143.1858  141.1848  164.0729 C.3     1  UNL1        0.0722
     19 N         144.3427  141.7398  164.8498 N.3     1  UNL1       -0.2727
     20 C         144.4574  143.2190  165.0704 C.3     1  UNL1        0.0722
     21 C         143.4152  144.1433  164.5140 C.3     1  UNL1        0.0210
     22 C         143.7964  142.2856  164.5644 C.3     1  UNL1        0.0722
     23 C         142.8541  143.1214  164.0613 C.3     1  UNL1        0.0210
@<TRIPOS>BOND
     1     3     4    1
     2     4     5    2
     3     5     6    1
     4     6     7    1
     5     6     8    2
     6     8     9    1
     7     9     1    1
     8     1     2    2
     9     1    14    1
    10    14    15    1
    11    15    16    1
    12    16    17    1
    13    17    18    1
    14    18    19    1
    15    19    20    1
    16    20    21    1
    17    19    22    1
    18    22    23    1
    19     9    10    2
    20    10    11    1
    21    11    12    2
    22    12    13    1
    23    13     4    1
    24    12     8    1
    25    21    16    1
    26    23    16    1
@<TRIPOS>MOLECULE
*****
 23 26 0 0 0
SMALL
GASTEIGER

@<TRIPOS>ATOM
      1 C         144.1490  143.2627  161.8355 C.2     1  UNL1        0.3428
      2 O         143.8944  143.0780  160.3688 O.2     1  UNL1       -0.2448
      3 C         141.1583  137.4058  164.5528 C.3     1  UNL1        0.0268
      4 C         141.9109  138.6020  164.0501 C.2     1  UNL1       -0.0371
      5 C         141.2309  139.5932  163.1528 C.2     1  UNL1        0.0033
      6 C         141.9836  140.7894  162.6501 C.2     1  UNL1        0.0584
      7 CL        141.3036  141.7806  161.7528 Cl      1  UNL1       -0.0822
      8 C         143.4161  140.9944  163.0447 C.2     1  UNL1        0.0322
      9 C         144.4059  142.0701  162.7081 C.2     1  UNL1        0.0966
     10 C         145.6975  141.7437  163.3974 C.2     1  UNL1        0.1049
     11 N         145.5061  140.4663  164.1600 N.2     1  UNL1       -0.2476
     12 C         144.0961  140.0032  163.9420 C.2     1  UNL1        0.0641
     13 C         143.3435  138.8070  164.4447 C.3     1  UNL1        0.0678
     14 O         144.1469  144.6401  162.4294 O.3     1  UNL1       -0.4454
     15 C         143.5407  144.8729  163.7816 C.3     1  UNL1        0.2087
     16 C         142.0950  144.5525  164.0207 C.3     1  UNL1        0.0445
     17 C         141.7150  143.5050  165.0249 C.3     1  UNL1        0.0210
     18 C         140.2693  143.1847  165.2640 C.3     1  UNL1        0.0722
     19 N         139.2035  143.9118  164.4988 N.3     1  UNL1       -0.2727
     20 C         139.5835  144.9592  163.4946 C.3     1  UNL1        0.0722
     21 C         141.0293  145.2796  163.2556 C.3     1  UNL1        0.0210
     22 C         139.9823  144.1217  164.3335 C.3     1  UNL1        0.0722
     23 C         141.2895  144.4115  164.1173 C.3     1  UNL1        0.0210
@<TRIPOS>BOND
     1     3     4    1
     2     4     5    2
     3     5     6    1
     4     6     7    1
     5     6     8    2
     6     8     9    1
     7     9     1    1
     8     1     2    2
     9     1    14    1
    10    14    15    1
    11    15    16    1
    12    16    17    1
    13    17    18    1
    14    18    19    1
    15    19    20    1
    16    20    21    1
    17    19    22    1
    18    22    23    1
    19     9    10    2
    20    10    11    1
    21    11    12    2
    22    12    13    1
    23    13     4    1
    24    12     8    1
    25    21    16    1
    26    23    16    1
@<TRIPOS>MOLECULE
*****
 23 26 0 0 0
SMALL
GASTEIGER

@<TRIPOS>ATOM
      1 C         140.8638  142.5778  164.1489 C.2     1  UNL1        0.3428
      2 O         141.3861  143.9700  164.3466 O.2     1  UNL1       -0.2448
      3 C         142.6169  138.8443  169.9472 C.3     1  UNL1        0.0268
      4 C         142.3308  139.5388  168.6488 C.2     1  UNL1       -0.0371
      5 C         141.4322  140.7396  168.6226 C.2     1  UNL1        0.0033
      6 C         141.1461  141.4341  167.3242 C.2     1  UNL1        0.0584
      7 CL        140.2475  142.6349  167.2980 Cl      1  UNL1       -0.0822
      8 C         141.7586  140.9278  166.0520 C.2     1  UNL1        0.0322
      9 C         141.6602  141.4022  164.6324 C.2     1  UNL1        0.0966
     10 C         142.4980  140.4947  163.7812 C.2     1  UNL1        0.1049
     11 N         143.1142  139.4594  164.6748 N.2     1  UNL1       -0.2476
     12 C         142.6573  139.7271  166.0782 C.2     1  UNL1        0.0641
     13 C         142.9433  139.0326  167.3765 C.3     1  UNL1        0.0678
     14 O         139.5451  142.3613  163.4677 O.3     1  UNL1       -0.4454
     15 C         138.4114  141.7224  164.2138 C.3     1  UNL1        0.2087
     16 C         138.4921  140.2771  164.6067 C.3     1  UNL1        0.0445
     17 C         138.9219  139.2496  163.6020 C.3     1  UNL1        0.0210
     18 C         139.0026  137.8042  163.9950 C.3     1  UNL1        0.0722
     19 N         138.6534  137.3864  165.3927 N.3     1  UNL1       -0.2727
     20 C         138.2235  138.4139  166.3974 C.3     1  UNL1        0.0722
     21 C         138.1429  139.8593  166.0044 C.3     1  UNL1        0.0210
     22 C         138.5941  138.1901  165.2239 C.3     1  UNL1        0.0722
     23 C         138.5211  139.4970  164.8687 C.3     1  UNL1        0.0210
@<TRIPOS>BOND
     1     3     4    1
     2     4     5    2
     3     5     6    1
     4     6     7    1
     5     6     8    2
     6     8     9    1
     7     9     1    1
     8     1     2    2
     9     1    14    1
    10    14    15    1
    11    15    16    1
    12    16    17    1
    13    17    18    1
    14    18    19    1
    15    19    20    1
    16    20    21    1
    17    19    22    1
    18    22    23    1
    19     9    10    2
    20    10    11    1
    21    11    12    2
    22    12    13    1
    23    13     4    1
    24    12     8    1
    25    21    16    1
    26    23    16    1
@<TRIPOS>MOLECULE
*****
 23 26 0 0 0
SMALL
GASTEIGER

@<TRIPOS>ATOM
      1 C         140.9652  137.8039  163.9281 C.2     1  UNL1        0.3428
      2 O         140.8114  137.1645  162.5800 O.2     1  UNL1       -0.2448
      3 C         138.1965  144.3342  163.3611 C.3     1  UNL1        0.0268
      4 C         138.6786  142.9311  163.5821 C.2     1  UNL1       -0.0371
      5 C         139.8446  142.4064  162.7978 C.2     1  UNL1        0.0033
      6 C         140.3267  141.0032  163.0189 C.2     1  UNL1        0.0584
      7 CL        141.4927  140.4785  162.2346 Cl      1  UNL1       -0.0822
      8 C         139.6428  140.1249  164.0242 C.2     1  UNL1        0.0322
      9 C         139.8923  138.7100  164.4553 C.2     1  UNL1        0.0966
     10 C         138.8805  138.3602  165.5060 C.2     1  UNL1        0.1049
     11 N         138.0057  139.5590  165.7243 N.2     1  UNL1       -0.2476
     12 C         138.4768  140.6496  164.8085 C.2     1  UNL1        0.0641
     13 C         137.9947  142.0527  164.5875 C.3     1  UNL1        0.0678
     14 O         142.1919  137.5372  164.7492 O.3     1  UNL1       -0.4454
     15 C         142.6726  138.5614  165.7341 C.3     1  UNL1        0.2087
     16 C         143.4059  139.7783  165.2530 C.3     1  UNL1        0.0445
     17 C         142.9104  141.1460  165.6188 C.3     1  UNL1        0.0210
     18 C         143.6438  142.3628  165.1377 C.3     1  UNL1        0.0722
     19 N         144.8726  142.2119  164.2908 N.3     1  UNL1       -0.2727
     20 C         145.3680  140.8442  163.9250 C.3     1  UNL1        0.0722
     21 C         144.6347  139.6274  164.4061 C.3     1  UNL1        0.0210
     22 C         144.5042  141.5158  164.5309 C.3     1  UNL1        0.0722
     23 C         143.8412  140.4155  164.9659 C.3     1  UNL1        0.0210
@<TRIPOS>BOND
     1     3     4    1
     2     4     5    2
     3     5     6    1
     4     6     7    1
     5     6     8    2
     6     8     9    1
     7     9     1    1
     8     1     2    2
     9     1    14    1
    10    14    15    1
    11    15    16    1
    12    16    17    1
    13    17    18    1
    14    18    19    1
    15    19    20    1
    16    20    21    1
    17    19    22    1
    18    22    23    1
    19     9    10    2
    20    10    11    1
    21    11    12    2
    22    12    13    1
    23    13     4    1
    24    12     8    1
    25    21    16    1
    26    23    16    1
