@<TRIPOS>MOLECULE
*****
 33 36 0 0 0
SMALL
GASTEIGER

@<TRIPOS>ATOM
      1 N         140.5871  141.4253  168.1786 N.ar    1  UNL1       -0.2394
      2 N         141.0301  142.4599  167.1870 N.ar    1  UNL1       -0.1681
      3 C         140.2775  142.2303  165.9099 C.ar    1  UNL1        0.1079
      4 C         139.3693  141.0538  166.1122 C.ar    1  UNL1        0.1031
      5 C         139.5606  140.5562  167.5143 C.ar    1  UNL1        0.1280
      6 N         138.8502  139.3937  168.1420 N.pl3   1  UNL1       -0.3427
      7 H         138.1893  138.8817  167.6221 H       1  UNL1        0.1437
      8 H         139.0449  139.1427  169.0739 H       1  UNL1        0.1437
      9 C         140.4098  143.0358  164.6515 C.ar    1  UNL1        0.0196
     10 C         139.6848  144.3421  164.5174 C.ar    1  UNL1        0.0016
     11 C         139.8172  145.1476  163.2590 C.ar    1  UNL1        0.0001
     12 C         140.6746  144.6468  162.1346 C.ar    1  UNL1        0.0030
     13 C         140.8069  145.4524  160.8762 C.ar    1  UNL1        0.0369
     14 C         141.6643  144.9516  159.7519 C.ar    1  UNL1        0.1384
     15 C         142.3894  143.6453  159.8860 C.ar    1  UNL1        0.0369
     16 C         142.2570  142.8398  161.1444 C.ar    1  UNL1        0.0031
     17 C         141.3996  143.3406  162.2687 C.ar    1  UNL1        0.0002
     18 C         141.2672  142.5351  163.5271 C.ar    1  UNL1        0.0016
     19 O         141.7967  145.7571  158.4935 O.3     1  UNL1       -0.4792
     20 C         140.6943  145.7457  157.4762 C.3     1  UNL1        0.1661
     21 C         139.7932  146.4810  156.5289 C.3     1  UNL1        0.0472
     22 C         139.6859  144.9908  156.6618 C.3     1  UNL1        0.0472
     23 C         138.4340  140.4762  165.0917 C.2     1  UNL1        0.2470
     24 N         137.4935  141.3735  164.3433 N.am    1  UNL1       -0.3252
     25 O         138.4392  139.0010  164.8196 O.2     1  UNL1       -0.2702
     26 H         137.4900  142.3417  164.5219 H       1  UNL1        0.1453
     27 H         136.8796  140.9943  163.6735 H       1  UNL1        0.1453
     28 C         142.1808  140.3800  169.1099 C.3     1  UNL1        0.0270
     29 C         141.0834  141.2844  169.5870 C.3     1  UNL1        0.1147
     30 C         139.9860  142.1888  170.0642 C.3     1  UNL1        0.0270
     31 C         141.5797  141.1435  170.9955 C.3     1  UNL1        0.1594
     32 O         140.6718  140.6028  172.0600 O.3     1  UNL1       -0.3800
     33 H         139.9404  141.2228  172.2069 H       1  UNL1        0.2105
@<TRIPOS>BOND
     1    28    29    1
     2    29    30    1
     3    29    31    1
     4    31    32    1
     5    29     1    1
     6     1     2   ar
     7     2     3   ar
     8     3     9    1
     9     9    10   ar
    10    10    11   ar
    11    11    12   ar
    12    12    13   ar
    13    13    14   ar
    14    14    19    1
    15    19    20    1
    16    20    21    1
    17    21    22    1
    18    14    15   ar
    19    15    16   ar
    20    16    17   ar
    21    17    18   ar
    22     3     4   ar
    23     4    23    1
    24    23    24   am
    25    23    25    2
    26     4     5   ar
    27     5     6    1
    28     5     1   ar
    29    18     9   ar
    30    17    12   ar
    31    22    20    1
    32    32    33    1
    33    24    26    1
    34    24    27    1
    35     6     7    1
    36     6     8    1
@<TRIPOS>MOLECULE
*****
 33 36 0 0 0
SMALL
GASTEIGER

@<TRIPOS>ATOM
      1 N         140.6639  140.9071  168.3099 N.ar    1  UNL1       -0.2394
      2 N         139.9164  140.7095  167.0245 N.ar    1  UNL1       -0.1681
      3 C         140.7678  139.8716  166.1172 C.ar    1  UNL1        0.1079
      4 C         142.0415  139.5514  166.8418 C.ar    1  UNL1        0.1031
      5 C         141.9773  140.1913  168.1970 C.ar    1  UNL1        0.1280
      6 N         143.0400  140.1268  169.2537 N.pl3   1  UNL1       -0.3427
      7 H         143.8726  139.6294  169.0848 H       1  UNL1        0.1437
      8 H         142.9048  140.5819  170.1162 H       1  UNL1        0.1437
      9 C         140.4085  139.4313  164.7290 C.ar    1  UNL1        0.0196
     10 C         139.8057  138.0763  164.5044 C.ar    1  UNL1        0.0016
     11 C         139.4464  137.6361  163.1162 C.ar    1  UNL1        0.0001
     12 C         139.6900  138.5508  161.9526 C.ar    1  UNL1        0.0030
     13 C         139.3307  138.1105  160.5644 C.ar    1  UNL1        0.0369
     14 C         139.5743  139.0253  159.4008 C.ar    1  UNL1        0.1384
     15 C         140.1772  140.3803  159.6255 C.ar    1  UNL1        0.0369
     16 C         140.5365  140.8206  161.0137 C.ar    1  UNL1        0.0031
     17 C         140.2929  139.9058  162.1772 C.ar    1  UNL1        0.0002
     18 C         140.6521  140.3461  163.5654 C.ar    1  UNL1        0.0016
     19 O         139.2151  138.5850  158.0127 O.3     1  UNL1       -0.4792
     20 C         140.2015  137.8060  157.1940 C.3     1  UNL1        0.1661
     21 C         140.5082  136.9361  156.0112 C.3     1  UNL1        0.0472
     22 C         141.6032  137.3267  156.9589 C.3     1  UNL1        0.0472
     23 C         143.1796  138.7346  166.3056 C.2     1  UNL1        0.2470
     24 N         143.5571  138.8339  164.8573 N.am    1  UNL1       -0.3252
     25 O         143.9402  137.8183  167.2177 O.2     1  UNL1       -0.2702
     26 H         143.0578  139.4353  164.2586 H       1  UNL1        0.1453
     27 H         144.3040  138.2978  164.5054 H       1  UNL1        0.1453
     28 C         139.5235  140.4494  170.0390 C.3     1  UNL1        0.0270
     29 C         140.1826  141.6840  169.4993 C.3     1  UNL1        0.1147
     30 C         140.8417  142.9186  168.9595 C.3     1  UNL1        0.0270
     31 C         139.7013  142.4609  170.6886 C.3     1  UNL1        0.1594
     32 O         140.3809  142.2981  172.0159 O.3     1  UNL1       -0.3800
     33 H         140.2394  141.3960  172.3431 H       1  UNL1        0.2105
@<TRIPOS>BOND
     1    28    29    1
     2    29    30    1
     3    29    31    1
     4    31    32    1
     5    29     1    1
     6     1     2   ar
     7     2     3   ar
     8     3     9    1
     9     9    10   ar
    10    10    11   ar
    11    11    12   ar
    12    12    13   ar
    13    13    14   ar
    14    14    19    1
    15    19    20    1
    16    20    21    1
    17    21    22    1
    18    14    15   ar
    19    15    16   ar
    20    16    17   ar
    21    17    18   ar
    22     3     4   ar
    23     4    23    1
    24    23    24   am
    25    23    25    2
    26     4     5   ar
    27     5     6    1
    28     5     1   ar
    29    18     9   ar
    30    17    12   ar
    31    22    20    1
    32    32    33    1
    33    24    26    1
    34    24    27    1
    35     6     7    1
    36     6     8    1
@<TRIPOS>MOLECULE
*****
 33 36 0 0 0
SMALL
GASTEIGER

@<TRIPOS>ATOM
      1 N         140.7885  141.5275  168.1556 N.ar    1  UNL1       -0.2394
      2 N         140.6416  141.8188  166.6915 N.ar    1  UNL1       -0.1681
      3 C         139.6750  140.8265  166.1161 C.ar    1  UNL1        0.1079
      4 C         139.2245  139.9219  167.2245 C.ar    1  UNL1        0.1031
      5 C         139.9126  140.3551  168.4850 C.ar    1  UNL1        0.1280
      6 N         139.7530  139.7263  169.8375 N.pl3   1  UNL1       -0.3427
      7 H         139.1512  138.9559  169.9543 H       1  UNL1        0.1437
      8 H         140.2500  140.0840  170.6084 H       1  UNL1        0.1437
      9 C         139.2360  140.7519  164.6836 C.ar    1  UNL1        0.0196
     10 C         137.9398  141.3785  164.2629 C.ar    1  UNL1        0.0016
     11 C         137.5009  141.3039  162.8305 C.ar    1  UNL1        0.0001
     12 C         138.3582  140.6028  161.8189 C.ar    1  UNL1        0.0030
     13 C         137.9193  140.5282  160.3864 C.ar    1  UNL1        0.0369
     14 C         138.7766  139.8271  159.3748 C.ar    1  UNL1        0.1384
     15 C         140.0730  139.2005  159.7957 C.ar    1  UNL1        0.0369
     16 C         140.5119  139.2751  161.2280 C.ar    1  UNL1        0.0031
     17 C         139.6545  139.9762  162.2397 C.ar    1  UNL1        0.0002
     18 C         140.0934  140.0508  163.6720 C.ar    1  UNL1        0.0016
     19 O         138.3377  139.7525  157.9425 O.3     1  UNL1       -0.4792
     20 C         137.6613  140.9289  157.3030 C.3     1  UNL1        0.1661
     21 C         137.5000  142.4130  157.1564 C.3     1  UNL1        0.0472
     22 C         136.6511  141.4822  156.3422 C.3     1  UNL1        0.0472
     23 C         138.2559  138.7839  167.0953 C.2     1  UNL1        0.2470
     24 N         138.2468  137.9442  165.8524 N.am    1  UNL1       -0.3252
     25 O         137.2964  138.4855  168.2090 O.2     1  UNL1       -0.2702
     26 H         138.8765  138.1400  165.1214 H       1  UNL1        0.1453
     27 H         137.6110  137.1973  165.7676 H       1  UNL1        0.1453
     28 C         142.7937  141.3430  168.8226 C.3     1  UNL1        0.0270
     29 C         141.6584  142.2769  169.1208 C.3     1  UNL1        0.1147
     30 C         140.5231  143.2108  169.4189 C.3     1  UNL1        0.0270
     31 C         142.5283  143.0263  170.0859 C.3     1  UNL1        0.1594
     32 O         142.4320  142.7455  171.5563 O.3     1  UNL1       -0.3800
     33 H         141.5589  143.0163  171.8807 H       1  UNL1        0.2105
@<TRIPOS>BOND
     1    28    29    1
     2    29    30    1
     3    29    31    1
     4    31    32    1
     5    29     1    1
     6     1     2   ar
     7     2     3   ar
     8     3     9    1
     9     9    10   ar
    10    10    11   ar
    11    11    12   ar
    12    12    13   ar
    13    13    14   ar
    14    14    19    1
    15    19    20    1
    16    20    21    1
    17    21    22    1
    18    14    15   ar
    19    15    16   ar
    20    16    17   ar
    21    17    18   ar
    22     3     4   ar
    23     4    23    1
    24    23    24   am
    25    23    25    2
    26     4     5   ar
    27     5     6    1
    28     5     1   ar
    29    18     9   ar
    30    17    12   ar
    31    22    20    1
    32    32    33    1
    33    24    26    1
    34    24    27    1
    35     6     7    1
    36     6     8    1
@<TRIPOS>MOLECULE
*****
 33 36 0 0 0
SMALL
GASTEIGER

@<TRIPOS>ATOM
      1 N         140.8987  140.5631  168.6010 N.ar    1  UNL1       -0.2394
      2 N         141.7382  140.8315  167.3873 N.ar    1  UNL1       -0.1681
      3 C         140.9509  140.4196  166.1787 C.ar    1  UNL1        0.1079
      4 C         139.6248  139.8967  166.6455 C.ar    1  UNL1        0.1031
      5 C         139.5925  139.9853  168.1425 C.ar    1  UNL1        0.1280
      6 N         138.4540  139.5692  169.0261 N.pl3   1  UNL1       -0.3427
      7 H         137.6328  139.1986  168.6291 H       1  UNL1        0.1437
      8 H         138.5278  139.6668  170.0029 H       1  UNL1        0.1437
      9 C         141.4093  140.5142  164.7536 C.ar    1  UNL1        0.0196
     10 C         140.9888  141.6781  163.9061 C.ar    1  UNL1        0.0016
     11 C         141.4472  141.7726  162.4810 C.ar    1  UNL1        0.0001
     12 C         142.3261  140.7031  161.9034 C.ar    1  UNL1        0.0030
     13 C         142.7845  140.7977  160.4782 C.ar    1  UNL1        0.0369
     14 C         143.6634  139.7282  159.9006 C.ar    1  UNL1        0.1384
     15 C         144.0840  138.5641  160.7481 C.ar    1  UNL1        0.0369
     16 C         143.6256  138.4696  162.1732 C.ar    1  UNL1        0.0031
     17 C         142.7466  139.5391  162.7508 C.ar    1  UNL1        0.0002
     18 C         142.2882  139.4447  164.1759 C.ar    1  UNL1        0.0016
     19 O         144.1218  139.8226  158.4755 O.3     1  UNL1       -0.4792
     20 C         144.4888  141.1551  157.8925 C.3     1  UNL1        0.1661
     21 C         145.5081  142.0676  157.2773 C.3     1  UNL1        0.0472
     22 C         144.1052  142.5505  157.4978 C.3     1  UNL1        0.0472
     23 C         138.5242  139.3764  165.7692 C.2     1  UNL1        0.2470
     24 N         137.7586  140.3181  164.8878 N.am    1  UNL1       -0.3252
     25 O         138.1892  137.9142  165.7744 O.2     1  UNL1       -0.2702
     26 H         137.9785  141.2777  164.8844 H       1  UNL1        0.1453
     27 H         137.0362  139.9765  164.3126 H       1  UNL1        0.1453
     28 C         140.6133  142.1608  169.9669 C.3     1  UNL1        0.0270
     29 C         141.2957  140.8262  170.0234 C.3     1  UNL1        0.1147
     30 C         141.9780  139.4916  170.0798 C.3     1  UNL1        0.0270
     31 C         141.6926  141.0893  171.4457 C.3     1  UNL1        0.1594
     32 O         142.2363  142.4315  171.8366 O.3     1  UNL1       -0.3800
     33 H         143.0910  142.5736  171.4006 H       1  UNL1        0.2105
@<TRIPOS>BOND
     1    28    29    1
     2    29    30    1
     3    29    31    1
     4    31    32    1
     5    29     1    1
     6     1     2   ar
     7     2     3   ar
     8     3     9    1
     9     9    10   ar
    10    10    11   ar
    11    11    12   ar
    12    12    13   ar
    13    13    14   ar
    14    14    19    1
    15    19    20    1
    16    20    21    1
    17    21    22    1
    18    14    15   ar
    19    15    16   ar
    20    16    17   ar
    21    17    18   ar
    22     3     4   ar
    23     4    23    1
    24    23    24   am
    25    23    25    2
    26     4     5   ar
    27     5     6    1
    28     5     1   ar
    29    18     9   ar
    30    17    12   ar
    31    22    20    1
    32    32    33    1
    33    24    26    1
    34    24    27    1
    35     6     7    1
    36     6     8    1
@<TRIPOS>MOLECULE
*****
 33 36 0 0 0
SMALL
GASTEIGER

@<TRIPOS>ATOM
      1 N         140.6777  140.8984  168.2857 N.ar    1  UNL1       -0.2394
      2 N         139.9375  140.7204  166.9932 N.ar    1  UNL1       -0.1681
      3 C         140.7795  139.8686  166.0902 C.ar    1  UNL1        0.1079
      4 C         142.0402  139.5201  166.8246 C.ar    1  UNL1        0.1031
      5 C         141.9773  140.1565  168.1814 C.ar    1  UNL1        0.1280
      6 N         143.0293  140.0669  169.2469 N.pl3   1  UNL1       -0.3427
      7 H         143.8531  139.5533  169.0833 H       1  UNL1        0.1437
      8 H         142.8958  140.5216  170.1099 H       1  UNL1        0.1437
      9 C         140.4234  139.4405  164.6974 C.ar    1  UNL1        0.0196
     10 C         139.7981  138.0975  164.4623 C.ar    1  UNL1        0.0016
     11 C         139.4420  137.6695  163.0695 C.ar    1  UNL1        0.0001
     12 C         139.7112  138.5844  161.9118 C.ar    1  UNL1        0.0030
     13 C         139.3551  138.1563  160.5189 C.ar    1  UNL1        0.0369
     14 C         139.6244  139.0712  159.3612 C.ar    1  UNL1        0.1384
     15 C         140.2498  140.4142  159.5963 C.ar    1  UNL1        0.0369
     16 C         140.6059  140.8423  160.9891 C.ar    1  UNL1        0.0031
     17 C         140.3366  139.9274  162.1468 C.ar    1  UNL1        0.0002
     18 C         140.6927  140.3554  163.5396 C.ar    1  UNL1        0.0016
     19 O         139.2683  138.6431  157.9684 O.3     1  UNL1       -0.4792
     20 C         138.9805  139.6740  156.9174 C.3     1  UNL1        0.1661
     21 C         139.3738  140.3936  155.6614 C.3     1  UNL1        0.0472
     22 C         138.0887  140.7399  156.3530 C.3     1  UNL1        0.0472
     23 C         143.1661  138.6824  166.2951 C.2     1  UNL1        0.2470
     24 N         143.4978  138.7095  164.8325 N.am    1  UNL1       -0.3252
     25 O         143.9605  137.8174  167.2283 O.2     1  UNL1       -0.2702
     26 H         142.9764  139.2772  164.2200 H       1  UNL1        0.1453
     27 H         144.2368  138.1596  164.4850 H       1  UNL1        0.1453
     28 C         139.5065  140.4599  169.9992 C.3     1  UNL1        0.0270
     29 C         140.2019  141.6807  169.4737 C.3     1  UNL1        0.1147
     30 C         140.8973  142.9015  168.9483 C.3     1  UNL1        0.0270
     31 C         139.7261  142.4631  170.6618 C.3     1  UNL1        0.1594
     32 O         140.3581  142.2459  172.0047 O.3     1  UNL1       -0.3800
     33 H         140.1618  141.3474  172.3129 H       1  UNL1        0.2105
@<TRIPOS>BOND
     1    28    29    1
     2    29    30    1
     3    29    31    1
     4    31    32    1
     5    29     1    1
     6     1     2   ar
     7     2     3   ar
     8     3     9    1
     9     9    10   ar
    10    10    11   ar
    11    11    12   ar
    12    12    13   ar
    13    13    14   ar
    14    14    19    1
    15    19    20    1
    16    20    21    1
    17    21    22    1
    18    14    15   ar
    19    15    16   ar
    20    16    17   ar
    21    17    18   ar
    22     3     4   ar
    23     4    23    1
    24    23    24   am
    25    23    25    2
    26     4     5   ar
    27     5     6    1
    28     5     1   ar
    29    18     9   ar
    30    17    12   ar
    31    22    20    1
    32    32    33    1
    33    24    26    1
    34    24    27    1
    35     6     7    1
    36     6     8    1
@<TRIPOS>MOLECULE
*****
 33 36 0 0 0
SMALL
GASTEIGER

@<TRIPOS>ATOM
      1 N         140.9979  140.8638  168.4569 N.ar    1  UNL1       -0.2394
      2 N         141.7348  140.9956  167.1571 N.ar    1  UNL1       -0.1681
      3 C         140.8735  140.4148  166.0750 C.ar    1  UNL1        0.1079
      4 C         139.6043  139.9241  166.7060 C.ar    1  UNL1        0.1031
      5 C         139.6812  140.2016  168.1781 C.ar    1  UNL1        0.1280
      6 N         138.6264  139.8743  169.1933 N.pl3   1  UNL1       -0.3427
      7 H         137.7908  139.4368  168.9113 H       1  UNL1        0.1437
      8 H         138.7699  140.0970  170.1415 H       1  UNL1        0.1437
      9 C         141.2206  140.3383  164.6176 C.ar    1  UNL1        0.0196
     10 C         140.8593  141.4686  163.7002 C.ar    1  UNL1        0.0016
     11 C         141.2064  141.3920  162.2430 C.ar    1  UNL1        0.0001
     12 C         141.9147  140.1850  161.7031 C.ar    1  UNL1        0.0030
     13 C         142.2617  140.1084  160.2458 C.ar    1  UNL1        0.0369
     14 C         142.9700  138.9014  159.7059 C.ar    1  UNL1        0.1384
     15 C         143.3313  137.7710  160.6234 C.ar    1  UNL1        0.0369
     16 C         142.9843  137.8476  162.0807 C.ar    1  UNL1        0.0031
     17 C         142.2759  139.0546  162.6205 C.ar    1  UNL1        0.0002
     18 C         141.9289  139.1313  164.0778 C.ar    1  UNL1        0.0016
     19 O         143.3171  138.8248  158.2487 O.3     1  UNL1       -0.4792
     20 C         142.7819  137.7036  157.4081 C.3     1  UNL1        0.1661
     21 C         141.6380  137.0480  156.6928 C.3     1  UNL1        0.0472
     22 C         142.9987  136.4173  156.6677 C.3     1  UNL1        0.0472
     23 C         138.4593  139.2706  165.9906 C.2     1  UNL1        0.2470
     24 N         137.8224  139.9513  164.8155 N.am    1  UNL1       -0.3252
     25 O         137.9510  137.9363  166.4505 O.2     1  UNL1       -0.2702
     26 H         138.1559  140.8270  164.5137 H       1  UNL1        0.1453
     27 H         137.0709  139.5223  164.3460 H       1  UNL1        0.1453
     28 C         140.8367  142.6486  169.5919 C.3     1  UNL1        0.0270
     29 C         141.4911  141.3150  169.7997 C.3     1  UNL1        0.1147
     30 C         142.1455  139.9814  170.0074 C.3     1  UNL1        0.0270
     31 C         141.9843  141.7662  171.1425 C.3     1  UNL1        0.1594
     32 O         142.2476  140.7587  172.2221 O.3     1  UNL1       -0.3800
     33 H         141.4122  140.3431  172.4872 H       1  UNL1        0.2105
@<TRIPOS>BOND
     1    28    29    1
     2    29    30    1
     3    29    31    1
     4    31    32    1
     5    29     1    1
     6     1     2   ar
     7     2     3   ar
     8     3     9    1
     9     9    10   ar
    10    10    11   ar
    11    11    12   ar
    12    12    13   ar
    13    13    14   ar
    14    14    19    1
    15    19    20    1
    16    20    21    1
    17    21    22    1
    18    14    15   ar
    19    15    16   ar
    20    16    17   ar
    21    17    18   ar
    22     3     4   ar
    23     4    23    1
    24    23    24   am
    25    23    25    2
    26     4     5   ar
    27     5     6    1
    28     5     1   ar
    29    18     9   ar
    30    17    12   ar
    31    22    20    1
    32    32    33    1
    33    24    26    1
    34    24    27    1
    35     6     7    1
    36     6     8    1
@<TRIPOS>MOLECULE
*****
 33 36 0 0 0
SMALL
GASTEIGER

@<TRIPOS>ATOM
      1 N         141.1697  142.1540  168.0531 N.ar    1  UNL1       -0.2394
      2 N         140.4242  142.1401  166.7516 N.ar    1  UNL1       -0.1681
      3 C         141.4076  142.4090  165.6512 C.ar    1  UNL1        0.1079
      4 C         142.7608  142.5891  166.2727 C.ar    1  UNL1        0.1031
      5 C         142.6139  142.4316  167.7572 C.ar    1  UNL1        0.1280
      6 N         143.7173  142.5336  168.7682 N.pl3   1  UNL1       -0.3427
      7 H         144.6383  142.7199  168.4745 H       1  UNL1        0.1437
      8 H         143.5204  142.4142  169.7254 H       1  UNL1        0.1437
      9 C         141.0929  142.4845  164.1865 C.ar    1  UNL1        0.0196
     10 C         140.8614  141.2264  163.4033 C.ar    1  UNL1        0.0016
     11 C         140.5468  141.3020  161.9387 C.ar    1  UNL1        0.0001
     12 C         140.4635  142.6356  161.2572 C.ar    1  UNL1        0.0030
     13 C         140.1489  142.7112  159.7925 C.ar    1  UNL1        0.0369
     14 C         140.0656  144.0449  159.1111 C.ar    1  UNL1        0.1384
     15 C         140.2971  145.3030  159.8944 C.ar    1  UNL1        0.0369
     16 C         140.6118  145.2275  161.3590 C.ar    1  UNL1        0.0031
     17 C         140.6950  143.8938  162.0405 C.ar    1  UNL1        0.0002
     18 C         141.0097  143.8182  163.5051 C.ar    1  UNL1        0.0016
     19 O         139.7510  144.1204  157.6465 O.3     1  UNL1       -0.4792
     20 C         140.0087  145.3889  156.8884 C.3     1  UNL1        0.1661
     21 C         140.9598  146.3122  156.1862 C.3     1  UNL1        0.0472
     22 C         139.5042  146.6626  156.2776 C.3     1  UNL1        0.0472
     23 C         144.0370  142.8764  165.5387 C.2     1  UNL1        0.2470
     24 N         144.4140  142.0566  164.3405 N.am    1  UNL1       -0.3252
     25 O         144.9363  143.9836  166.0030 O.2     1  UNL1       -0.2702
     26 H         143.8238  141.3300  164.0357 H       1  UNL1        0.1453
     27 H         145.2516  142.2452  163.8588 H       1  UNL1        0.1453
     28 C         140.3891  143.4093  169.5746 C.3     1  UNL1        0.0270
     29 C         140.5755  141.9298  169.4120 C.3     1  UNL1        0.1147
     30 C         140.7619  140.4504  169.2494 C.3     1  UNL1        0.0270
     31 C         139.9812  141.7056  170.7709 C.3     1  UNL1        0.1594
     32 O         140.6760  142.2357  171.9900 O.3     1  UNL1       -0.3800
     33 H         141.5225  141.7762  172.1052 H       1  UNL1        0.2105
@<TRIPOS>BOND
     1    28    29    1
     2    29    30    1
     3    29    31    1
     4    31    32    1
     5    29     1    1
     6     1     2   ar
     7     2     3   ar
     8     3     9    1
     9     9    10   ar
    10    10    11   ar
    11    11    12   ar
    12    12    13   ar
    13    13    14   ar
    14    14    19    1
    15    19    20    1
    16    20    21    1
    17    21    22    1
    18    14    15   ar
    19    15    16   ar
    20    16    17   ar
    21    17    18   ar
    22     3     4   ar
    23     4    23    1
    24    23    24   am
    25    23    25    2
    26     4     5   ar
    27     5     6    1
    28     5     1   ar
    29    18     9   ar
    30    17    12   ar
    31    22    20    1
    32    32    33    1
    33    24    26    1
    34    24    27    1
    35     6     7    1
    36     6     8    1
@<TRIPOS>MOLECULE
*****
 33 36 0 0 0
SMALL
GASTEIGER

@<TRIPOS>ATOM
      1 N         141.9519  138.3616  158.5030 N.ar    1  UNL1       -0.2394
      2 N         142.5929  138.4680  159.8549 N.ar    1  UNL1       -0.1681
      3 C         141.5035  138.6329  160.8728 C.ar    1  UNL1        0.1079
      4 C         140.1892  138.6284  160.1500 C.ar    1  UNL1        0.1031
      5 C         140.4663  138.4608  158.6853 C.ar    1  UNL1        0.1280
      6 N         139.4383  138.4025  157.5945 N.pl3   1  UNL1       -0.3427
      7 H         138.4817  138.4771  157.8151 H       1  UNL1        0.1437
      8 H         139.7201  138.2896  156.6580 H       1  UNL1        0.1437
      9 C         141.6949  138.7770  162.3536 C.ar    1  UNL1        0.0196
     10 C         141.4820  137.5976  163.2556 C.ar    1  UNL1        0.0016
     11 C         141.6734  137.7417  164.7363 C.ar    1  UNL1        0.0001
     12 C         142.0777  139.0652  165.3150 C.ar    1  UNL1        0.0030
     13 C         142.2691  139.2093  166.7958 C.ar    1  UNL1        0.0369
     14 C         142.6734  140.5328  167.3745 C.ar    1  UNL1        0.1384
     15 C         142.8863  141.7122  166.4724 C.ar    1  UNL1        0.0369
     16 C         142.6949  141.5681  164.9917 C.ar    1  UNL1        0.0031
     17 C         142.2906  140.2446  164.4130 C.ar    1  UNL1        0.0002
     18 C         142.0992  140.1005  162.9323 C.ar    1  UNL1        0.0016
     19 O         142.8648  140.6769  168.8552 O.3     1  UNL1       -0.4792
     20 C         142.4443  141.9401  169.5464 C.3     1  UNL1        0.1661
     21 C         141.3758  142.9280  169.9102 C.3     1  UNL1        0.0472
     22 C         142.7845  143.1399  170.3798 C.3     1  UNL1        0.0472
     23 C         138.8355  138.7672  160.7809 C.2     1  UNL1        0.2470
     24 N         138.3277  137.7036  161.7086 N.am    1  UNL1       -0.3252
     25 O         137.9894  139.9699  160.4840 O.2     1  UNL1       -0.2702
     26 H         138.8829  136.9143  161.9035 H       1  UNL1        0.1453
     27 H         137.4392  137.7948  162.1227 H       1  UNL1        0.1453
     28 C         142.5901  136.6970  157.3533 C.3     1  UNL1        0.0270
     29 C         142.6703  138.1868  157.1979 C.3     1  UNL1        0.1147
     30 C         142.7505  139.6765  157.0425 C.3     1  UNL1        0.0270
     31 C         143.3887  138.0120  155.8928 C.3     1  UNL1        0.1594
     32 O         144.4875  136.9982  155.7715 O.3     1  UNL1       -0.3800
     33 H         145.2333  137.2610  156.3334 H       1  UNL1        0.2105
@<TRIPOS>BOND
     1    28    29    1
     2    29    30    1
     3    29    31    1
     4    31    32    1
     5    29     1    1
     6     1     2   ar
     7     2     3   ar
     8     3     9    1
     9     9    10   ar
    10    10    11   ar
    11    11    12   ar
    12    12    13   ar
    13    13    14   ar
    14    14    19    1
    15    19    20    1
    16    20    21    1
    17    21    22    1
    18    14    15   ar
    19    15    16   ar
    20    16    17   ar
    21    17    18   ar
    22     3     4   ar
    23     4    23    1
    24    23    24   am
    25    23    25    2
    26     4     5   ar
    27     5     6    1
    28     5     1   ar
    29    18     9   ar
    30    17    12   ar
    31    22    20    1
    32    32    33    1
    33    24    26    1
    34    24    27    1
    35     6     7    1
    36     6     8    1
@<TRIPOS>MOLECULE
*****
 33 36 0 0 0
SMALL
GASTEIGER

@<TRIPOS>ATOM
      1 N         143.7383  142.1833  159.0031 N.ar    1  UNL1       -0.2394
      2 N         143.5195  141.4319  160.2828 N.ar    1  UNL1       -0.1681
      3 C         142.5427  142.2084  161.1152 C.ar    1  UNL1        0.1079
      4 C         142.1578  143.4398  160.3500 C.ar    1  UNL1        0.1031
      5 C         142.8966  143.4243  159.0447 C.ar    1  UNL1        0.1280
      6 N         142.8092  144.4667  157.9696 N.pl3   1  UNL1       -0.3427
      7 H         142.2253  145.2502  158.0900 H       1  UNL1        0.1437
      8 H         143.3357  144.3674  157.1437 H       1  UNL1        0.1437
      9 C         142.0393  141.8215  162.4742 C.ar    1  UNL1        0.0196
     10 C         142.8171  142.2028  163.6987 C.ar    1  UNL1        0.0016
     11 C         142.3136  141.8159  165.0577 C.ar    1  UNL1        0.0001
     12 C         141.0324  141.0476  165.1921 C.ar    1  UNL1        0.0030
     13 C         140.5289  140.6606  166.5511 C.ar    1  UNL1        0.0369
     14 C         139.2477  139.8923  166.6855 C.ar    1  UNL1        0.1384
     15 C         138.4698  139.5109  165.4609 C.ar    1  UNL1        0.0369
     16 C         138.9733  139.8979  164.1020 C.ar    1  UNL1        0.0031
     17 C         140.2546  140.6662  163.9675 C.ar    1  UNL1        0.0002
     18 C         140.7580  141.0531  162.6086 C.ar    1  UNL1        0.0016
     19 O         138.7442  139.5054  168.0445 O.3     1  UNL1       -0.4792
     20 C         139.2987  140.1731  169.2679 C.3     1  UNL1        0.1661
     21 C         139.8799  140.0808  170.6476 C.3     1  UNL1        0.0472
     22 C         139.6778  141.4220  170.0071 C.3     1  UNL1        0.0472
     23 C         141.2018  144.5004  160.8094 C.2     1  UNL1        0.2470
     24 N         141.5615  145.3841  161.9668 N.am    1  UNL1       -0.3252
     25 O         139.8859  144.6775  160.1112 O.2     1  UNL1       -0.2702
     26 H         142.4251  145.2679  162.4250 H       1  UNL1        0.1453
     27 H         140.9340  146.0802  162.2683 H       1  UNL1        0.1453
     28 C         143.5732  140.8473  157.3636 C.3     1  UNL1        0.0270
     29 C         144.6402  141.7669  157.8793 C.3     1  UNL1        0.1147
     30 C         145.7072  142.6864  158.3949 C.3     1  UNL1        0.0270
     31 C         145.5422  141.3505  156.7554 C.3     1  UNL1        0.1594
     32 O         145.6309  139.9060  156.3608 O.3     1  UNL1       -0.3800
     33 H         146.0279  139.3969  157.0848 H       1  UNL1        0.2105
@<TRIPOS>BOND
     1    28    29    1
     2    29    30    1
     3    29    31    1
     4    31    32    1
     5    29     1    1
     6     1     2   ar
     7     2     3   ar
     8     3     9    1
     9     9    10   ar
    10    10    11   ar
    11    11    12   ar
    12    12    13   ar
    13    13    14   ar
    14    14    19    1
    15    19    20    1
    16    20    21    1
    17    21    22    1
    18    14    15   ar
    19    15    16   ar
    20    16    17   ar
    21    17    18   ar
    22     3     4   ar
    23     4    23    1
    24    23    24   am
    25    23    25    2
    26     4     5   ar
    27     5     6    1
    28     5     1   ar
    29    18     9   ar
    30    17    12   ar
    31    22    20    1
    32    32    33    1
    33    24    26    1
    34    24    27    1
    35     6     7    1
    36     6     8    1
